*SPEF "ieee 1481-1999"
*DESIGN "tiny_user_project"
*DATE "11:11:11 Fri 11 11, 1111"
*VENDOR "OpenRCX"
*PROGRAM "Parallel Extraction"
*VERSION "1.0"
*DESIGN_FLOW "NAME_SCOPE LOCAL" "PIN_CAP NONE"
*DIVIDER /
*DELIMITER :
*BUS_DELIMITER []
*T_UNIT 1 NS
*C_UNIT 1 PF
*R_UNIT 1 OHM
*L_UNIT 1 HENRY

*NAME_MAP
*1 io_in[0]
*2 io_in[10]
*3 io_in[11]
*4 io_in[12]
*5 io_in[13]
*6 io_in[14]
*7 io_in[15]
*8 io_in[16]
*9 io_in[17]
*10 io_in[18]
*11 io_in[19]
*12 io_in[1]
*13 io_in[20]
*14 io_in[21]
*15 io_in[22]
*16 io_in[23]
*17 io_in[24]
*18 io_in[25]
*19 io_in[26]
*20 io_in[27]
*21 io_in[28]
*22 io_in[29]
*23 io_in[2]
*24 io_in[30]
*25 io_in[31]
*26 io_in[32]
*27 io_in[33]
*28 io_in[34]
*29 io_in[35]
*30 io_in[36]
*31 io_in[37]
*32 io_in[3]
*33 io_in[4]
*34 io_in[5]
*35 io_in[6]
*36 io_in[7]
*37 io_in[8]
*38 io_in[9]
*39 net54
*40 net64
*41 net65
*42 net66
*43 net67
*44 net68
*45 net69
*46 net70
*47 net71
*48 net72
*49 net73
*50 net55
*51 net74
*52 net75
*53 net76
*54 net77
*55 net78
*56 net79
*57 net80
*58 net81
*59 net82
*60 net83
*61 net56
*62 net84
*63 net85
*64 net86
*65 net87
*66 net88
*67 net89
*68 net90
*69 net91
*70 net57
*71 net58
*72 net59
*73 net60
*74 net61
*75 net62
*76 net63
*77 net24
*78 net34
*79 net35
*80 net36
*81 net37
*82 net38
*83 net39
*84 io_out[16]
*85 io_out[17]
*86 io_out[18]
*87 io_out[19]
*88 net25
*89 io_out[20]
*90 io_out[21]
*91 io_out[22]
*92 io_out[23]
*93 net40
*94 net41
*95 net42
*96 net43
*97 net44
*98 net45
*99 net26
*100 net46
*101 net47
*102 net48
*103 net49
*104 net50
*105 net51
*106 net52
*107 net53
*108 net27
*109 net28
*110 net29
*111 net30
*112 net31
*113 net32
*114 net33
*117 _000_
*118 _001_
*119 _002_
*120 _003_
*121 _004_
*122 _005_
*123 _006_
*124 _007_
*125 _008_
*126 _009_
*127 _010_
*128 _011_
*129 _012_
*130 _013_
*131 _014_
*132 _015_
*133 _016_
*134 _017_
*135 _018_
*136 _019_
*137 _020_
*138 _021_
*139 _022_
*140 _023_
*141 _024_
*142 _025_
*143 _026_
*144 _027_
*145 _028_
*146 _029_
*147 _030_
*148 _031_
*149 _032_
*150 _033_
*151 _034_
*152 _035_
*153 _036_
*154 _037_
*155 _038_
*156 _039_
*157 _040_
*158 _041_
*159 _042_
*160 _043_
*161 _044_
*162 _045_
*163 _046_
*164 _047_
*165 _048_
*166 _049_
*167 _050_
*168 _051_
*169 _052_
*170 _053_
*171 _054_
*172 _055_
*173 _056_
*174 _057_
*175 _058_
*176 _059_
*177 _060_
*178 _061_
*179 _062_
*180 _063_
*181 _064_
*182 _065_
*183 _066_
*184 _067_
*185 _068_
*186 _069_
*187 _070_
*188 _071_
*189 _072_
*190 _073_
*191 _074_
*192 _075_
*193 _076_
*194 _077_
*195 _078_
*196 _079_
*197 _080_
*198 _081_
*199 _082_
*200 _083_
*201 _084_
*202 _085_
*203 _086_
*204 _087_
*205 _088_
*206 _089_
*207 _090_
*208 _091_
*209 _092_
*210 _093_
*211 mod\.flipflop1\.d
*212 mod\.flipflop1\.q
*213 mod\.flipflop10\.d
*214 mod\.flipflop10\.q
*215 mod\.flipflop11\.d
*216 mod\.flipflop11\.q
*217 mod\.flipflop12\.d
*218 mod\.flipflop12\.q
*219 mod\.flipflop13\.d
*220 mod\.flipflop13\.q
*221 mod\.flipflop14\.d
*222 mod\.flipflop14\.q
*223 mod\.flipflop15\.q
*224 mod\.flipflop16\.q
*225 mod\.flipflop17\.q
*226 mod\.flipflop18\.d
*227 mod\.flipflop18\.q
*228 mod\.flipflop19\.d
*229 mod\.flipflop19\.q
*230 mod\.flipflop2\.q
*231 mod\.flipflop20\.d
*232 mod\.flipflop20\.q
*233 mod\.flipflop21\.q
*234 mod\.flipflop22\.q
*235 mod\.flipflop23\.q
*236 mod\.flipflop24\.q
*237 mod\.flipflop25\.q
*238 mod\.flipflop26\.q
*239 mod\.flipflop27\.q
*240 mod\.flipflop28\.q
*241 mod\.flipflop29\.q
*242 mod\.flipflop30\.q
*243 mod\.flipflop31\.q
*244 mod\.flipflop32\.q
*245 mod\.flipflop33\.q
*246 mod\.flipflop34\.q
*247 mod\.flipflop35\.q
*248 mod\.flipflop36\.q
*249 mod\.flipflop37\.q
*250 mod\.flipflop38\.q
*251 mod\.flipflop39\.q
*252 mod\.flipflop4\.d
*253 mod\.flipflop40\.q
*254 mod\.flipflop41\.q
*255 mod\.flipflop42\.q
*256 mod\.flipflop43\.q
*257 mod\.flipflop44\.q
*258 mod\.flipflop45\.q
*259 mod\.flipflop46\.q
*260 mod\.flipflop47\.q
*261 mod\.flipflop48\.q
*262 mod\.flipflop49\.q
*263 mod\.flipflop5\.d
*264 mod\.flipflop50\.q
*265 mod\.flipflop51\.q
*266 mod\.flipflop52\.q
*267 mod\.flipflop53\.q
*268 mod\.flipflop54\.q
*269 mod\.flipflop55\.q
*270 mod\.flipflop56\.q
*271 mod\.flipflop57\.q
*272 mod\.flipflop58\.q
*273 mod\.flipflop59\.q
*274 mod\.flipflop60\.q
*275 mod\.flipflop61\.q
*276 mod\.flipflop65\.q
*277 mod\.flipflop66\.d
*278 mod\.flipflop66\.q
*279 mod\.flipflop68\.d
*280 mod\.flipflop68\.q
*281 mod\.mux15\.out
*282 mod\.mux22\.out
*283 mod\.mux29\.out
*284 mod\.mux36\.out
*285 mod\.mux43\.out
*286 mod\.mux50\.out
*287 mod\.mux57\.out
*288 mod\.mux8\.out
*289 net1
*290 net10
*291 net11
*292 net12
*293 net13
*294 net14
*295 net15
*296 net16
*297 net17
*298 net18
*299 net19
*300 net2
*301 net20
*302 net21
*303 net22
*304 net23
*305 net3
*306 net4
*307 net5
*308 net6
*309 net7
*310 net8
*311 net9
*312 ANTENNA__102__A
*313 ANTENNA__105__A
*314 ANTENNA__108__B
*315 ANTENNA__108__C
*316 ANTENNA__109__A2
*317 ANTENNA__109__B1
*318 ANTENNA__110__A
*319 ANTENNA__112__A
*320 ANTENNA__115__A
*321 ANTENNA__115__B
*322 ANTENNA__115__C
*323 ANTENNA__116__A2
*324 ANTENNA__116__B1
*325 ANTENNA__116__C1
*326 ANTENNA__119__A1
*327 ANTENNA__119__A2
*328 ANTENNA__122__B
*329 ANTENNA__122__C
*330 ANTENNA__125__A2
*331 ANTENNA__126__B
*332 ANTENNA__126__C
*333 ANTENNA__127__A2
*334 ANTENNA__127__B1
*335 ANTENNA__129__B
*336 ANTENNA__129__C
*337 ANTENNA__130__A2
*338 ANTENNA__130__B1
*339 ANTENNA__131__B
*340 ANTENNA__131__C
*341 ANTENNA__132__A2
*342 ANTENNA__132__B1
*343 ANTENNA__133__B
*344 ANTENNA__133__C
*345 ANTENNA__134__A2
*346 ANTENNA__134__B1
*347 ANTENNA__135__A1
*348 ANTENNA__135__A2
*349 ANTENNA__136__B
*350 ANTENNA__136__C
*351 ANTENNA__137__A1
*352 ANTENNA__137__A2
*353 ANTENNA__139__B
*354 ANTENNA__139__C
*355 ANTENNA__140__A2
*356 ANTENNA__140__B1
*357 ANTENNA__141__B
*358 ANTENNA__141__C
*359 ANTENNA__142__A1
*360 ANTENNA__142__A2
*361 ANTENNA__142__B1
*362 ANTENNA__143__B
*363 ANTENNA__143__C
*364 ANTENNA__144__A2
*365 ANTENNA__144__B1
*366 ANTENNA__145__A1
*367 ANTENNA__145__A2
*368 ANTENNA__146__B
*369 ANTENNA__146__C
*370 ANTENNA__147__A1
*371 ANTENNA__149__B
*372 ANTENNA__149__C
*373 ANTENNA__150__A2
*374 ANTENNA__150__B1
*375 ANTENNA__151__B
*376 ANTENNA__151__C
*377 ANTENNA__152__A2
*378 ANTENNA__152__B1
*379 ANTENNA__153__B
*380 ANTENNA__153__C
*381 ANTENNA__154__A2
*382 ANTENNA__154__B1
*383 ANTENNA__155__A1
*384 ANTENNA__155__A2
*385 ANTENNA__156__B
*386 ANTENNA__156__C
*387 ANTENNA__157__A1
*388 ANTENNA__157__A3
*389 ANTENNA__159__B
*390 ANTENNA__159__C
*391 ANTENNA__160__A2
*392 ANTENNA__160__B1
*393 ANTENNA__161__B
*394 ANTENNA__161__C
*395 ANTENNA__162__A2
*396 ANTENNA__162__B1
*397 ANTENNA__163__B
*398 ANTENNA__163__C
*399 ANTENNA__164__A2
*400 ANTENNA__164__B1
*401 ANTENNA__165__A1
*402 ANTENNA__165__A2
*403 ANTENNA__166__B
*404 ANTENNA__166__C
*405 ANTENNA__167__A1
*406 ANTENNA__169__B
*407 ANTENNA__169__C
*408 ANTENNA__170__A2
*409 ANTENNA__170__B1
*410 ANTENNA__171__B
*411 ANTENNA__171__C
*412 ANTENNA__172__A2
*413 ANTENNA__172__B1
*414 ANTENNA__173__B
*415 ANTENNA__173__C
*416 ANTENNA__174__A2
*417 ANTENNA__174__B1
*418 ANTENNA__175__A1
*419 ANTENNA__175__A2
*420 ANTENNA__176__B
*421 ANTENNA__176__C
*422 ANTENNA__177__A1
*423 ANTENNA__179__B
*424 ANTENNA__179__C
*425 ANTENNA__180__A2
*426 ANTENNA__180__B1
*427 ANTENNA__180__C1
*428 ANTENNA__181__B
*429 ANTENNA__181__C
*430 ANTENNA__182__A2
*431 ANTENNA__182__B1
*432 ANTENNA__183__B
*433 ANTENNA__183__C
*434 ANTENNA__184__A2
*435 ANTENNA__184__B1
*436 ANTENNA__185__A1
*437 ANTENNA__185__A2
*438 ANTENNA__186__B
*439 ANTENNA__186__C
*440 ANTENNA__187__A1
*441 ANTENNA__189__B
*442 ANTENNA__189__C
*443 ANTENNA__190__A2
*444 ANTENNA__190__B1
*445 ANTENNA__191__B
*446 ANTENNA__191__C
*447 ANTENNA__192__A2
*448 ANTENNA__192__B1
*449 ANTENNA__193__A
*450 ANTENNA__193__B
*451 ANTENNA__193__C
*452 ANTENNA__194__A2
*453 ANTENNA__194__B1
*454 ANTENNA__195__A1
*455 ANTENNA__195__A2
*456 ANTENNA__196__B
*457 ANTENNA__196__C
*458 ANTENNA__197__A1
*459 ANTENNA__199__CLK
*460 ANTENNA__202__CLK
*461 ANTENNA__203__CLK
*462 ANTENNA__205__CLK
*463 ANTENNA__206__CLK
*464 ANTENNA__207__CLK
*465 ANTENNA__210__CLK
*466 ANTENNA__211__CLK
*467 ANTENNA__215__CLK
*468 ANTENNA__217__CLK
*469 ANTENNA__221__CLK
*470 ANTENNA__224__CLK
*471 ANTENNA__226__CLK
*472 ANTENNA__228__CLK
*473 ANTENNA__230__CLK
*474 ANTENNA__231__CLK
*475 ANTENNA__232__CLK
*476 ANTENNA__234__CLK
*477 ANTENNA__236__CLK
*478 ANTENNA__238__CLK
*479 ANTENNA__240__CLK
*480 ANTENNA__242__CLK
*481 ANTENNA__243__CLK
*482 ANTENNA__244__CLK
*483 ANTENNA__246__CLK
*484 ANTENNA__247__CLK
*485 ANTENNA__248__CLK
*486 ANTENNA__250__CLK
*487 ANTENNA__251__CLK
*488 ANTENNA__251__D
*489 ANTENNA__252__D
*490 ANTENNA__253__CLK
*491 ANTENNA__254__CLK
*492 ANTENNA__255__CLK
*493 ANTENNA__257__CLK
*494 ANTENNA__258__CLK
*495 ANTENNA__260__CLK
*496 ANTENNA__261__CLK
*497 ANTENNA__262__CLK
*498 ANTENNA__262__D
*499 ANTENNA__264__CLK
*500 ANTENNA__335__A
*501 ANTENNA__341__A
*502 ANTENNA_fanout17_A
*503 ANTENNA_fanout18_A
*504 ANTENNA_fanout19_A
*505 ANTENNA_fanout20_A
*506 ANTENNA_fanout21_A
*507 ANTENNA_fanout22_A
*508 ANTENNA_fanout23_A
*509 ANTENNA_input1_A
*510 ANTENNA_input2_A
*511 ANTENNA_input3_A
*512 ANTENNA_input4_A
*513 ANTENNA_input5_A
*514 ANTENNA_input6_A
*515 ANTENNA_input7_A
*516 FILLER_0_109
*517 FILLER_0_113
*518 FILLER_0_125
*519 FILLER_0_137
*520 FILLER_0_141
*521 FILLER_0_15
*522 FILLER_0_153
*523 FILLER_0_165
*524 FILLER_0_169
*525 FILLER_0_181
*526 FILLER_0_193
*527 FILLER_0_197
*528 FILLER_0_209
*529 FILLER_0_221
*530 FILLER_0_225
*531 FILLER_0_237
*532 FILLER_0_249
*533 FILLER_0_253
*534 FILLER_0_265
*535 FILLER_0_27
*536 FILLER_0_277
*537 FILLER_0_281
*538 FILLER_0_29
*539 FILLER_0_293
*540 FILLER_0_3
*541 FILLER_0_41
*542 FILLER_0_53
*543 FILLER_0_57
*544 FILLER_0_69
*545 FILLER_0_81
*546 FILLER_0_85
*547 FILLER_0_97
*548 FILLER_10_109
*549 FILLER_10_121
*550 FILLER_10_133
*551 FILLER_10_139
*552 FILLER_10_141
*553 FILLER_10_153
*554 FILLER_10_165
*555 FILLER_10_177
*556 FILLER_10_189
*557 FILLER_10_195
*558 FILLER_10_197
*559 FILLER_10_20
*560 FILLER_10_209
*561 FILLER_10_221
*562 FILLER_10_233
*563 FILLER_10_245
*564 FILLER_10_251
*565 FILLER_10_253
*566 FILLER_10_265
*567 FILLER_10_277
*568 FILLER_10_289
*569 FILLER_10_29
*570 FILLER_10_293
*571 FILLER_10_297
*572 FILLER_10_3
*573 FILLER_10_41
*574 FILLER_10_53
*575 FILLER_10_65
*576 FILLER_10_77
*577 FILLER_10_8
*578 FILLER_10_83
*579 FILLER_10_85
*580 FILLER_10_97
*581 FILLER_11_105
*582 FILLER_11_111
*583 FILLER_11_113
*584 FILLER_11_125
*585 FILLER_11_137
*586 FILLER_11_149
*587 FILLER_11_15
*588 FILLER_11_161
*589 FILLER_11_167
*590 FILLER_11_169
*591 FILLER_11_181
*592 FILLER_11_193
*593 FILLER_11_205
*594 FILLER_11_217
*595 FILLER_11_223
*596 FILLER_11_225
*597 FILLER_11_237
*598 FILLER_11_249
*599 FILLER_11_261
*600 FILLER_11_27
*601 FILLER_11_273
*602 FILLER_11_279
*603 FILLER_11_281
*604 FILLER_11_293
*605 FILLER_11_3
*606 FILLER_11_39
*607 FILLER_11_51
*608 FILLER_11_55
*609 FILLER_11_57
*610 FILLER_11_69
*611 FILLER_11_81
*612 FILLER_11_93
*613 FILLER_12_109
*614 FILLER_12_121
*615 FILLER_12_133
*616 FILLER_12_139
*617 FILLER_12_141
*618 FILLER_12_15
*619 FILLER_12_153
*620 FILLER_12_165
*621 FILLER_12_177
*622 FILLER_12_189
*623 FILLER_12_195
*624 FILLER_12_197
*625 FILLER_12_209
*626 FILLER_12_221
*627 FILLER_12_233
*628 FILLER_12_245
*629 FILLER_12_251
*630 FILLER_12_253
*631 FILLER_12_265
*632 FILLER_12_27
*633 FILLER_12_277
*634 FILLER_12_289
*635 FILLER_12_29
*636 FILLER_12_293
*637 FILLER_12_297
*638 FILLER_12_3
*639 FILLER_12_41
*640 FILLER_12_53
*641 FILLER_12_65
*642 FILLER_12_77
*643 FILLER_12_83
*644 FILLER_12_85
*645 FILLER_12_97
*646 FILLER_13_105
*647 FILLER_13_111
*648 FILLER_13_113
*649 FILLER_13_125
*650 FILLER_13_137
*651 FILLER_13_149
*652 FILLER_13_161
*653 FILLER_13_167
*654 FILLER_13_169
*655 FILLER_13_181
*656 FILLER_13_193
*657 FILLER_13_20
*658 FILLER_13_205
*659 FILLER_13_217
*660 FILLER_13_223
*661 FILLER_13_225
*662 FILLER_13_237
*663 FILLER_13_249
*664 FILLER_13_261
*665 FILLER_13_273
*666 FILLER_13_279
*667 FILLER_13_281
*668 FILLER_13_293
*669 FILLER_13_297
*670 FILLER_13_3
*671 FILLER_13_32
*672 FILLER_13_44
*673 FILLER_13_57
*674 FILLER_13_69
*675 FILLER_13_8
*676 FILLER_13_81
*677 FILLER_13_93
*678 FILLER_14_109
*679 FILLER_14_121
*680 FILLER_14_133
*681 FILLER_14_139
*682 FILLER_14_141
*683 FILLER_14_153
*684 FILLER_14_165
*685 FILLER_14_177
*686 FILLER_14_189
*687 FILLER_14_195
*688 FILLER_14_197
*689 FILLER_14_20
*690 FILLER_14_209
*691 FILLER_14_221
*692 FILLER_14_233
*693 FILLER_14_245
*694 FILLER_14_251
*695 FILLER_14_253
*696 FILLER_14_265
*697 FILLER_14_277
*698 FILLER_14_289
*699 FILLER_14_29
*700 FILLER_14_297
*701 FILLER_14_3
*702 FILLER_14_41
*703 FILLER_14_53
*704 FILLER_14_65
*705 FILLER_14_77
*706 FILLER_14_8
*707 FILLER_14_83
*708 FILLER_14_85
*709 FILLER_14_97
*710 FILLER_15_105
*711 FILLER_15_111
*712 FILLER_15_113
*713 FILLER_15_125
*714 FILLER_15_137
*715 FILLER_15_149
*716 FILLER_15_15
*717 FILLER_15_161
*718 FILLER_15_167
*719 FILLER_15_169
*720 FILLER_15_181
*721 FILLER_15_193
*722 FILLER_15_205
*723 FILLER_15_217
*724 FILLER_15_223
*725 FILLER_15_225
*726 FILLER_15_237
*727 FILLER_15_249
*728 FILLER_15_261
*729 FILLER_15_27
*730 FILLER_15_273
*731 FILLER_15_279
*732 FILLER_15_281
*733 FILLER_15_293
*734 FILLER_15_3
*735 FILLER_15_39
*736 FILLER_15_51
*737 FILLER_15_55
*738 FILLER_15_57
*739 FILLER_15_69
*740 FILLER_15_81
*741 FILLER_15_93
*742 FILLER_16_109
*743 FILLER_16_121
*744 FILLER_16_133
*745 FILLER_16_139
*746 FILLER_16_141
*747 FILLER_16_15
*748 FILLER_16_153
*749 FILLER_16_165
*750 FILLER_16_177
*751 FILLER_16_189
*752 FILLER_16_195
*753 FILLER_16_197
*754 FILLER_16_209
*755 FILLER_16_221
*756 FILLER_16_233
*757 FILLER_16_245
*758 FILLER_16_251
*759 FILLER_16_253
*760 FILLER_16_265
*761 FILLER_16_27
*762 FILLER_16_277
*763 FILLER_16_289
*764 FILLER_16_29
*765 FILLER_16_293
*766 FILLER_16_297
*767 FILLER_16_3
*768 FILLER_16_41
*769 FILLER_16_53
*770 FILLER_16_65
*771 FILLER_16_77
*772 FILLER_16_83
*773 FILLER_16_85
*774 FILLER_16_97
*775 FILLER_17_105
*776 FILLER_17_111
*777 FILLER_17_113
*778 FILLER_17_125
*779 FILLER_17_137
*780 FILLER_17_149
*781 FILLER_17_161
*782 FILLER_17_167
*783 FILLER_17_169
*784 FILLER_17_181
*785 FILLER_17_193
*786 FILLER_17_20
*787 FILLER_17_205
*788 FILLER_17_217
*789 FILLER_17_223
*790 FILLER_17_225
*791 FILLER_17_237
*792 FILLER_17_249
*793 FILLER_17_261
*794 FILLER_17_273
*795 FILLER_17_279
*796 FILLER_17_281
*797 FILLER_17_293
*798 FILLER_17_297
*799 FILLER_17_3
*800 FILLER_17_32
*801 FILLER_17_44
*802 FILLER_17_57
*803 FILLER_17_69
*804 FILLER_17_8
*805 FILLER_17_81
*806 FILLER_17_93
*807 FILLER_18_109
*808 FILLER_18_121
*809 FILLER_18_133
*810 FILLER_18_139
*811 FILLER_18_141
*812 FILLER_18_153
*813 FILLER_18_165
*814 FILLER_18_177
*815 FILLER_18_189
*816 FILLER_18_195
*817 FILLER_18_197
*818 FILLER_18_20
*819 FILLER_18_209
*820 FILLER_18_221
*821 FILLER_18_233
*822 FILLER_18_245
*823 FILLER_18_251
*824 FILLER_18_253
*825 FILLER_18_265
*826 FILLER_18_277
*827 FILLER_18_289
*828 FILLER_18_29
*829 FILLER_18_297
*830 FILLER_18_3
*831 FILLER_18_41
*832 FILLER_18_53
*833 FILLER_18_65
*834 FILLER_18_77
*835 FILLER_18_8
*836 FILLER_18_83
*837 FILLER_18_85
*838 FILLER_18_97
*839 FILLER_19_105
*840 FILLER_19_111
*841 FILLER_19_113
*842 FILLER_19_125
*843 FILLER_19_137
*844 FILLER_19_149
*845 FILLER_19_15
*846 FILLER_19_161
*847 FILLER_19_167
*848 FILLER_19_169
*849 FILLER_19_181
*850 FILLER_19_193
*851 FILLER_19_205
*852 FILLER_19_217
*853 FILLER_19_223
*854 FILLER_19_225
*855 FILLER_19_237
*856 FILLER_19_249
*857 FILLER_19_261
*858 FILLER_19_27
*859 FILLER_19_273
*860 FILLER_19_279
*861 FILLER_19_281
*862 FILLER_19_293
*863 FILLER_19_3
*864 FILLER_19_39
*865 FILLER_19_51
*866 FILLER_19_55
*867 FILLER_19_57
*868 FILLER_19_69
*869 FILLER_19_81
*870 FILLER_19_93
*871 FILLER_1_105
*872 FILLER_1_111
*873 FILLER_1_113
*874 FILLER_1_125
*875 FILLER_1_137
*876 FILLER_1_149
*877 FILLER_1_15
*878 FILLER_1_161
*879 FILLER_1_167
*880 FILLER_1_169
*881 FILLER_1_181
*882 FILLER_1_193
*883 FILLER_1_205
*884 FILLER_1_217
*885 FILLER_1_223
*886 FILLER_1_225
*887 FILLER_1_237
*888 FILLER_1_249
*889 FILLER_1_261
*890 FILLER_1_27
*891 FILLER_1_273
*892 FILLER_1_279
*893 FILLER_1_281
*894 FILLER_1_293
*895 FILLER_1_297
*896 FILLER_1_3
*897 FILLER_1_39
*898 FILLER_1_51
*899 FILLER_1_55
*900 FILLER_1_57
*901 FILLER_1_69
*902 FILLER_1_81
*903 FILLER_1_93
*904 FILLER_20_109
*905 FILLER_20_121
*906 FILLER_20_133
*907 FILLER_20_139
*908 FILLER_20_141
*909 FILLER_20_153
*910 FILLER_20_165
*911 FILLER_20_177
*912 FILLER_20_189
*913 FILLER_20_195
*914 FILLER_20_197
*915 FILLER_20_20
*916 FILLER_20_209
*917 FILLER_20_221
*918 FILLER_20_233
*919 FILLER_20_245
*920 FILLER_20_251
*921 FILLER_20_253
*922 FILLER_20_265
*923 FILLER_20_277
*924 FILLER_20_289
*925 FILLER_20_29
*926 FILLER_20_293
*927 FILLER_20_297
*928 FILLER_20_3
*929 FILLER_20_41
*930 FILLER_20_53
*931 FILLER_20_65
*932 FILLER_20_77
*933 FILLER_20_8
*934 FILLER_20_83
*935 FILLER_20_85
*936 FILLER_20_97
*937 FILLER_21_105
*938 FILLER_21_111
*939 FILLER_21_113
*940 FILLER_21_125
*941 FILLER_21_137
*942 FILLER_21_149
*943 FILLER_21_15
*944 FILLER_21_161
*945 FILLER_21_167
*946 FILLER_21_169
*947 FILLER_21_181
*948 FILLER_21_193
*949 FILLER_21_205
*950 FILLER_21_217
*951 FILLER_21_223
*952 FILLER_21_225
*953 FILLER_21_237
*954 FILLER_21_249
*955 FILLER_21_261
*956 FILLER_21_27
*957 FILLER_21_273
*958 FILLER_21_279
*959 FILLER_21_281
*960 FILLER_21_293
*961 FILLER_21_297
*962 FILLER_21_3
*963 FILLER_21_39
*964 FILLER_21_51
*965 FILLER_21_55
*966 FILLER_21_57
*967 FILLER_21_69
*968 FILLER_21_81
*969 FILLER_21_93
*970 FILLER_22_109
*971 FILLER_22_121
*972 FILLER_22_133
*973 FILLER_22_139
*974 FILLER_22_141
*975 FILLER_22_153
*976 FILLER_22_165
*977 FILLER_22_177
*978 FILLER_22_189
*979 FILLER_22_195
*980 FILLER_22_197
*981 FILLER_22_20
*982 FILLER_22_209
*983 FILLER_22_221
*984 FILLER_22_233
*985 FILLER_22_245
*986 FILLER_22_251
*987 FILLER_22_253
*988 FILLER_22_265
*989 FILLER_22_277
*990 FILLER_22_289
*991 FILLER_22_29
*992 FILLER_22_297
*993 FILLER_22_3
*994 FILLER_22_41
*995 FILLER_22_53
*996 FILLER_22_65
*997 FILLER_22_77
*998 FILLER_22_8
*999 FILLER_22_83
*1000 FILLER_22_85
*1001 FILLER_22_97
*1002 FILLER_23_105
*1003 FILLER_23_111
*1004 FILLER_23_113
*1005 FILLER_23_125
*1006 FILLER_23_137
*1007 FILLER_23_149
*1008 FILLER_23_15
*1009 FILLER_23_161
*1010 FILLER_23_167
*1011 FILLER_23_169
*1012 FILLER_23_181
*1013 FILLER_23_193
*1014 FILLER_23_205
*1015 FILLER_23_217
*1016 FILLER_23_223
*1017 FILLER_23_225
*1018 FILLER_23_237
*1019 FILLER_23_249
*1020 FILLER_23_261
*1021 FILLER_23_27
*1022 FILLER_23_273
*1023 FILLER_23_279
*1024 FILLER_23_281
*1025 FILLER_23_293
*1026 FILLER_23_297
*1027 FILLER_23_3
*1028 FILLER_23_39
*1029 FILLER_23_51
*1030 FILLER_23_55
*1031 FILLER_23_57
*1032 FILLER_23_69
*1033 FILLER_23_81
*1034 FILLER_23_93
*1035 FILLER_24_109
*1036 FILLER_24_121
*1037 FILLER_24_133
*1038 FILLER_24_139
*1039 FILLER_24_141
*1040 FILLER_24_153
*1041 FILLER_24_165
*1042 FILLER_24_177
*1043 FILLER_24_189
*1044 FILLER_24_195
*1045 FILLER_24_197
*1046 FILLER_24_20
*1047 FILLER_24_209
*1048 FILLER_24_221
*1049 FILLER_24_233
*1050 FILLER_24_245
*1051 FILLER_24_251
*1052 FILLER_24_253
*1053 FILLER_24_265
*1054 FILLER_24_277
*1055 FILLER_24_289
*1056 FILLER_24_29
*1057 FILLER_24_297
*1058 FILLER_24_3
*1059 FILLER_24_41
*1060 FILLER_24_53
*1061 FILLER_24_65
*1062 FILLER_24_77
*1063 FILLER_24_8
*1064 FILLER_24_83
*1065 FILLER_24_85
*1066 FILLER_24_97
*1067 FILLER_25_105
*1068 FILLER_25_111
*1069 FILLER_25_113
*1070 FILLER_25_125
*1071 FILLER_25_137
*1072 FILLER_25_149
*1073 FILLER_25_161
*1074 FILLER_25_167
*1075 FILLER_25_169
*1076 FILLER_25_181
*1077 FILLER_25_193
*1078 FILLER_25_20
*1079 FILLER_25_205
*1080 FILLER_25_217
*1081 FILLER_25_223
*1082 FILLER_25_225
*1083 FILLER_25_237
*1084 FILLER_25_249
*1085 FILLER_25_261
*1086 FILLER_25_273
*1087 FILLER_25_279
*1088 FILLER_25_281
*1089 FILLER_25_287
*1090 FILLER_25_290
*1091 FILLER_25_297
*1092 FILLER_25_3
*1093 FILLER_25_32
*1094 FILLER_25_44
*1095 FILLER_25_57
*1096 FILLER_25_69
*1097 FILLER_25_8
*1098 FILLER_25_81
*1099 FILLER_25_93
*1100 FILLER_26_109
*1101 FILLER_26_121
*1102 FILLER_26_133
*1103 FILLER_26_139
*1104 FILLER_26_141
*1105 FILLER_26_15
*1106 FILLER_26_153
*1107 FILLER_26_165
*1108 FILLER_26_177
*1109 FILLER_26_189
*1110 FILLER_26_195
*1111 FILLER_26_197
*1112 FILLER_26_209
*1113 FILLER_26_221
*1114 FILLER_26_233
*1115 FILLER_26_245
*1116 FILLER_26_251
*1117 FILLER_26_253
*1118 FILLER_26_265
*1119 FILLER_26_27
*1120 FILLER_26_275
*1121 FILLER_26_283
*1122 FILLER_26_289
*1123 FILLER_26_29
*1124 FILLER_26_292
*1125 FILLER_26_298
*1126 FILLER_26_3
*1127 FILLER_26_41
*1128 FILLER_26_53
*1129 FILLER_26_65
*1130 FILLER_26_77
*1131 FILLER_26_83
*1132 FILLER_26_85
*1133 FILLER_26_97
*1134 FILLER_27_105
*1135 FILLER_27_111
*1136 FILLER_27_113
*1137 FILLER_27_125
*1138 FILLER_27_137
*1139 FILLER_27_149
*1140 FILLER_27_15
*1141 FILLER_27_161
*1142 FILLER_27_167
*1143 FILLER_27_169
*1144 FILLER_27_181
*1145 FILLER_27_193
*1146 FILLER_27_205
*1147 FILLER_27_217
*1148 FILLER_27_223
*1149 FILLER_27_225
*1150 FILLER_27_237
*1151 FILLER_27_249
*1152 FILLER_27_257
*1153 FILLER_27_261
*1154 FILLER_27_267
*1155 FILLER_27_27
*1156 FILLER_27_273
*1157 FILLER_27_279
*1158 FILLER_27_281
*1159 FILLER_27_285
*1160 FILLER_27_293
*1161 FILLER_27_297
*1162 FILLER_27_3
*1163 FILLER_27_39
*1164 FILLER_27_51
*1165 FILLER_27_55
*1166 FILLER_27_57
*1167 FILLER_27_69
*1168 FILLER_27_81
*1169 FILLER_27_93
*1170 FILLER_28_109
*1171 FILLER_28_121
*1172 FILLER_28_133
*1173 FILLER_28_139
*1174 FILLER_28_141
*1175 FILLER_28_153
*1176 FILLER_28_165
*1177 FILLER_28_177
*1178 FILLER_28_189
*1179 FILLER_28_195
*1180 FILLER_28_197
*1181 FILLER_28_20
*1182 FILLER_28_209
*1183 FILLER_28_221
*1184 FILLER_28_233
*1185 FILLER_28_245
*1186 FILLER_28_251
*1187 FILLER_28_253
*1188 FILLER_28_257
*1189 FILLER_28_267
*1190 FILLER_28_275
*1191 FILLER_28_283
*1192 FILLER_28_287
*1193 FILLER_28_29
*1194 FILLER_28_290
*1195 FILLER_28_297
*1196 FILLER_28_3
*1197 FILLER_28_41
*1198 FILLER_28_53
*1199 FILLER_28_65
*1200 FILLER_28_77
*1201 FILLER_28_8
*1202 FILLER_28_83
*1203 FILLER_28_85
*1204 FILLER_28_97
*1205 FILLER_29_105
*1206 FILLER_29_111
*1207 FILLER_29_113
*1208 FILLER_29_125
*1209 FILLER_29_137
*1210 FILLER_29_149
*1211 FILLER_29_161
*1212 FILLER_29_167
*1213 FILLER_29_169
*1214 FILLER_29_181
*1215 FILLER_29_193
*1216 FILLER_29_20
*1217 FILLER_29_205
*1218 FILLER_29_217
*1219 FILLER_29_223
*1220 FILLER_29_225
*1221 FILLER_29_237
*1222 FILLER_29_245
*1223 FILLER_29_248
*1224 FILLER_29_256
*1225 FILLER_29_259
*1226 FILLER_29_265
*1227 FILLER_29_271
*1228 FILLER_29_277
*1229 FILLER_29_281
*1230 FILLER_29_285
*1231 FILLER_29_291
*1232 FILLER_29_297
*1233 FILLER_29_3
*1234 FILLER_29_32
*1235 FILLER_29_44
*1236 FILLER_29_57
*1237 FILLER_29_69
*1238 FILLER_29_8
*1239 FILLER_29_81
*1240 FILLER_29_93
*1241 FILLER_2_109
*1242 FILLER_2_121
*1243 FILLER_2_133
*1244 FILLER_2_139
*1245 FILLER_2_141
*1246 FILLER_2_153
*1247 FILLER_2_165
*1248 FILLER_2_177
*1249 FILLER_2_189
*1250 FILLER_2_195
*1251 FILLER_2_197
*1252 FILLER_2_20
*1253 FILLER_2_209
*1254 FILLER_2_221
*1255 FILLER_2_233
*1256 FILLER_2_245
*1257 FILLER_2_251
*1258 FILLER_2_253
*1259 FILLER_2_265
*1260 FILLER_2_277
*1261 FILLER_2_289
*1262 FILLER_2_29
*1263 FILLER_2_293
*1264 FILLER_2_297
*1265 FILLER_2_3
*1266 FILLER_2_41
*1267 FILLER_2_53
*1268 FILLER_2_65
*1269 FILLER_2_77
*1270 FILLER_2_8
*1271 FILLER_2_83
*1272 FILLER_2_85
*1273 FILLER_2_97
*1274 FILLER_30_109
*1275 FILLER_30_121
*1276 FILLER_30_133
*1277 FILLER_30_139
*1278 FILLER_30_141
*1279 FILLER_30_15
*1280 FILLER_30_153
*1281 FILLER_30_165
*1282 FILLER_30_177
*1283 FILLER_30_189
*1284 FILLER_30_195
*1285 FILLER_30_197
*1286 FILLER_30_209
*1287 FILLER_30_221
*1288 FILLER_30_229
*1289 FILLER_30_233
*1290 FILLER_30_239
*1291 FILLER_30_245
*1292 FILLER_30_251
*1293 FILLER_30_253
*1294 FILLER_30_259
*1295 FILLER_30_265
*1296 FILLER_30_27
*1297 FILLER_30_275
*1298 FILLER_30_281
*1299 FILLER_30_29
*1300 FILLER_30_297
*1301 FILLER_30_3
*1302 FILLER_30_41
*1303 FILLER_30_53
*1304 FILLER_30_65
*1305 FILLER_30_77
*1306 FILLER_30_83
*1307 FILLER_30_85
*1308 FILLER_30_97
*1309 FILLER_31_105
*1310 FILLER_31_111
*1311 FILLER_31_113
*1312 FILLER_31_125
*1313 FILLER_31_137
*1314 FILLER_31_149
*1315 FILLER_31_15
*1316 FILLER_31_161
*1317 FILLER_31_167
*1318 FILLER_31_169
*1319 FILLER_31_181
*1320 FILLER_31_193
*1321 FILLER_31_205
*1322 FILLER_31_217
*1323 FILLER_31_223
*1324 FILLER_31_225
*1325 FILLER_31_229
*1326 FILLER_31_235
*1327 FILLER_31_238
*1328 FILLER_31_244
*1329 FILLER_31_250
*1330 FILLER_31_256
*1331 FILLER_31_262
*1332 FILLER_31_27
*1333 FILLER_31_270
*1334 FILLER_31_273
*1335 FILLER_31_279
*1336 FILLER_31_281
*1337 FILLER_31_287
*1338 FILLER_31_290
*1339 FILLER_31_297
*1340 FILLER_31_3
*1341 FILLER_31_39
*1342 FILLER_31_51
*1343 FILLER_31_55
*1344 FILLER_31_57
*1345 FILLER_31_69
*1346 FILLER_31_81
*1347 FILLER_31_93
*1348 FILLER_32_109
*1349 FILLER_32_121
*1350 FILLER_32_133
*1351 FILLER_32_139
*1352 FILLER_32_141
*1353 FILLER_32_153
*1354 FILLER_32_165
*1355 FILLER_32_177
*1356 FILLER_32_189
*1357 FILLER_32_195
*1358 FILLER_32_197
*1359 FILLER_32_20
*1360 FILLER_32_209
*1361 FILLER_32_213
*1362 FILLER_32_219
*1363 FILLER_32_225
*1364 FILLER_32_229
*1365 FILLER_32_232
*1366 FILLER_32_238
*1367 FILLER_32_241
*1368 FILLER_32_247
*1369 FILLER_32_251
*1370 FILLER_32_253
*1371 FILLER_32_257
*1372 FILLER_32_263
*1373 FILLER_32_269
*1374 FILLER_32_275
*1375 FILLER_32_281
*1376 FILLER_32_284
*1377 FILLER_32_29
*1378 FILLER_32_290
*1379 FILLER_32_297
*1380 FILLER_32_3
*1381 FILLER_32_41
*1382 FILLER_32_53
*1383 FILLER_32_65
*1384 FILLER_32_77
*1385 FILLER_32_8
*1386 FILLER_32_83
*1387 FILLER_32_85
*1388 FILLER_32_97
*1389 FILLER_33_105
*1390 FILLER_33_111
*1391 FILLER_33_113
*1392 FILLER_33_125
*1393 FILLER_33_137
*1394 FILLER_33_149
*1395 FILLER_33_161
*1396 FILLER_33_167
*1397 FILLER_33_169
*1398 FILLER_33_181
*1399 FILLER_33_193
*1400 FILLER_33_20
*1401 FILLER_33_201
*1402 FILLER_33_206
*1403 FILLER_33_212
*1404 FILLER_33_218
*1405 FILLER_33_225
*1406 FILLER_33_229
*1407 FILLER_33_233
*1408 FILLER_33_236
*1409 FILLER_33_242
*1410 FILLER_33_248
*1411 FILLER_33_254
*1412 FILLER_33_260
*1413 FILLER_33_266
*1414 FILLER_33_272
*1415 FILLER_33_278
*1416 FILLER_33_281
*1417 FILLER_33_285
*1418 FILLER_33_293
*1419 FILLER_33_297
*1420 FILLER_33_3
*1421 FILLER_33_32
*1422 FILLER_33_44
*1423 FILLER_33_57
*1424 FILLER_33_69
*1425 FILLER_33_8
*1426 FILLER_33_81
*1427 FILLER_33_93
*1428 FILLER_34_109
*1429 FILLER_34_121
*1430 FILLER_34_133
*1431 FILLER_34_139
*1432 FILLER_34_141
*1433 FILLER_34_15
*1434 FILLER_34_153
*1435 FILLER_34_165
*1436 FILLER_34_177
*1437 FILLER_34_189
*1438 FILLER_34_195
*1439 FILLER_34_197
*1440 FILLER_34_205
*1441 FILLER_34_211
*1442 FILLER_34_217
*1443 FILLER_34_223
*1444 FILLER_34_229
*1445 FILLER_34_234
*1446 FILLER_34_241
*1447 FILLER_34_247
*1448 FILLER_34_251
*1449 FILLER_34_253
*1450 FILLER_34_257
*1451 FILLER_34_263
*1452 FILLER_34_269
*1453 FILLER_34_27
*1454 FILLER_34_275
*1455 FILLER_34_279
*1456 FILLER_34_283
*1457 FILLER_34_29
*1458 FILLER_34_290
*1459 FILLER_34_297
*1460 FILLER_34_3
*1461 FILLER_34_41
*1462 FILLER_34_53
*1463 FILLER_34_65
*1464 FILLER_34_77
*1465 FILLER_34_83
*1466 FILLER_34_85
*1467 FILLER_34_97
*1468 FILLER_35_105
*1469 FILLER_35_111
*1470 FILLER_35_113
*1471 FILLER_35_125
*1472 FILLER_35_137
*1473 FILLER_35_149
*1474 FILLER_35_161
*1475 FILLER_35_167
*1476 FILLER_35_169
*1477 FILLER_35_181
*1478 FILLER_35_189
*1479 FILLER_35_193
*1480 FILLER_35_199
*1481 FILLER_35_20
*1482 FILLER_35_205
*1483 FILLER_35_215
*1484 FILLER_35_219
*1485 FILLER_35_222
*1486 FILLER_35_225
*1487 FILLER_35_233
*1488 FILLER_35_242
*1489 FILLER_35_249
*1490 FILLER_35_256
*1491 FILLER_35_262
*1492 FILLER_35_268
*1493 FILLER_35_274
*1494 FILLER_35_278
*1495 FILLER_35_281
*1496 FILLER_35_286
*1497 FILLER_35_297
*1498 FILLER_35_3
*1499 FILLER_35_32
*1500 FILLER_35_44
*1501 FILLER_35_57
*1502 FILLER_35_69
*1503 FILLER_35_8
*1504 FILLER_35_81
*1505 FILLER_35_93
*1506 FILLER_36_109
*1507 FILLER_36_121
*1508 FILLER_36_133
*1509 FILLER_36_139
*1510 FILLER_36_141
*1511 FILLER_36_15
*1512 FILLER_36_153
*1513 FILLER_36_165
*1514 FILLER_36_177
*1515 FILLER_36_182
*1516 FILLER_36_188
*1517 FILLER_36_194
*1518 FILLER_36_197
*1519 FILLER_36_203
*1520 FILLER_36_209
*1521 FILLER_36_221
*1522 FILLER_36_230
*1523 FILLER_36_239
*1524 FILLER_36_248
*1525 FILLER_36_253
*1526 FILLER_36_258
*1527 FILLER_36_269
*1528 FILLER_36_27
*1529 FILLER_36_276
*1530 FILLER_36_283
*1531 FILLER_36_29
*1532 FILLER_36_290
*1533 FILLER_36_297
*1534 FILLER_36_3
*1535 FILLER_36_41
*1536 FILLER_36_53
*1537 FILLER_36_65
*1538 FILLER_36_77
*1539 FILLER_36_83
*1540 FILLER_36_85
*1541 FILLER_36_97
*1542 FILLER_37_105
*1543 FILLER_37_111
*1544 FILLER_37_113
*1545 FILLER_37_125
*1546 FILLER_37_137
*1547 FILLER_37_149
*1548 FILLER_37_161
*1549 FILLER_37_167
*1550 FILLER_37_169
*1551 FILLER_37_173
*1552 FILLER_37_179
*1553 FILLER_37_185
*1554 FILLER_37_193
*1555 FILLER_37_196
*1556 FILLER_37_20
*1557 FILLER_37_204
*1558 FILLER_37_213
*1559 FILLER_37_222
*1560 FILLER_37_225
*1561 FILLER_37_234
*1562 FILLER_37_245
*1563 FILLER_37_254
*1564 FILLER_37_263
*1565 FILLER_37_271
*1566 FILLER_37_278
*1567 FILLER_37_281
*1568 FILLER_37_290
*1569 FILLER_37_297
*1570 FILLER_37_3
*1571 FILLER_37_32
*1572 FILLER_37_44
*1573 FILLER_37_57
*1574 FILLER_37_69
*1575 FILLER_37_8
*1576 FILLER_37_81
*1577 FILLER_37_93
*1578 FILLER_38_109
*1579 FILLER_38_121
*1580 FILLER_38_133
*1581 FILLER_38_139
*1582 FILLER_38_141
*1583 FILLER_38_15
*1584 FILLER_38_153
*1585 FILLER_38_161
*1586 FILLER_38_165
*1587 FILLER_38_171
*1588 FILLER_38_177
*1589 FILLER_38_183
*1590 FILLER_38_189
*1591 FILLER_38_195
*1592 FILLER_38_197
*1593 FILLER_38_205
*1594 FILLER_38_214
*1595 FILLER_38_225
*1596 FILLER_38_245
*1597 FILLER_38_251
*1598 FILLER_38_253
*1599 FILLER_38_260
*1600 FILLER_38_269
*1601 FILLER_38_27