*SPEF "ieee 1481-1999"
*DESIGN "tiny_user_project"
*DATE "11:11:11 Fri 11 11, 1111"
*VENDOR "OpenRCX"
*PROGRAM "Parallel Extraction"
*VERSION "1.0"
*DESIGN_FLOW "NAME_SCOPE LOCAL" "PIN_CAP NONE"
*DIVIDER /
*DELIMITER :
*BUS_DELIMITER []
*T_UNIT 1 NS
*C_UNIT 1 PF
*R_UNIT 1 OHM
*L_UNIT 1 HENRY

*NAME_MAP
*1 io_in[0]
*2 io_in[10]
*3 io_in[11]
*4 io_in[12]
*5 io_in[13]
*6 io_in[14]
*7 io_in[15]
*8 io_in[16]
*9 io_in[17]
*10 io_in[18]
*11 io_in[19]
*12 io_in[1]
*13 io_in[20]
*14 io_in[21]
*15 io_in[22]
*16 io_in[23]
*17 io_in[24]
*18 io_in[25]
*19 io_in[26]
*20 io_in[27]
*21 io_in[28]
*22 io_in[29]
*23 io_in[2]
*24 io_in[30]
*25 io_in[31]
*26 io_in[32]
*27 io_in[33]
*28 io_in[34]
*29 io_in[35]
*30 io_in[36]
*31 io_in[37]
*32 io_in[3]
*33 io_in[4]
*34 io_in[5]
*35 io_in[6]
*36 io_in[7]
*37 io_in[8]
*38 io_in[9]
*39 net39
*40 net49
*41 net50
*42 net51
*43 net52
*44 net53
*45 net54
*46 net55
*47 net56
*48 net57
*49 net58
*50 net40
*51 net59
*52 net60
*53 net61
*54 net62
*55 net63
*56 net64
*57 net65
*58 net66
*59 net67
*60 net68
*61 net41
*62 net69
*63 net70
*64 net71
*65 net72
*66 net73
*67 net74
*68 net75
*69 net76
*70 net42
*71 net43
*72 net44
*73 net45
*74 net46
*75 net47
*76 net48
*77 net1
*78 net11
*79 net12
*80 net13
*81 net14
*82 net15
*83 net16
*84 net17
*85 net18
*86 net19
*87 net20
*88 net2
*89 net21
*90 net22
*91 net23
*92 net24
*93 net25
*94 net26
*95 net27
*96 net28
*97 net29
*98 net30
*99 net3
*100 net31
*101 net32
*102 net33
*103 net34
*104 net35
*105 net36
*106 net37
*107 net38
*108 net4
*109 net5
*110 net6
*111 net7
*112 net8
*113 net9
*114 net10
*115 FILLER_0_109
*116 FILLER_0_113
*117 FILLER_0_125
*118 FILLER_0_137
*119 FILLER_0_141
*120 FILLER_0_153
*121 FILLER_0_165
*122 FILLER_0_169
*123 FILLER_0_181
*124 FILLER_0_193
*125 FILLER_0_197
*126 FILLER_0_20
*127 FILLER_0_209
*128 FILLER_0_221
*129 FILLER_0_225
*130 FILLER_0_237
*131 FILLER_0_249
*132 FILLER_0_253
*133 FILLER_0_265
*134 FILLER_0_277
*135 FILLER_0_281
*136 FILLER_0_29
*137 FILLER_0_293
*138 FILLER_0_3
*139 FILLER_0_305
*140 FILLER_0_309
*141 FILLER_0_321
*142 FILLER_0_333
*143 FILLER_0_337
*144 FILLER_0_349
*145 FILLER_0_361
*146 FILLER_0_365
*147 FILLER_0_377
*148 FILLER_0_389
*149 FILLER_0_393
*150 FILLER_0_405
*151 FILLER_0_41
*152 FILLER_0_417
*153 FILLER_0_421
*154 FILLER_0_433
*155 FILLER_0_445
*156 FILLER_0_449
*157 FILLER_0_461
*158 FILLER_0_473
*159 FILLER_0_477
*160 FILLER_0_489
*161 FILLER_0_501
*162 FILLER_0_505
*163 FILLER_0_513
*164 FILLER_0_53
*165 FILLER_0_57
*166 FILLER_0_69
*167 FILLER_0_8
*168 FILLER_0_81
*169 FILLER_0_85
*170 FILLER_0_97
*171 FILLER_10_109
*172 FILLER_10_121
*173 FILLER_10_133
*174 FILLER_10_139
*175 FILLER_10_141
*176 FILLER_10_15
*177 FILLER_10_153
*178 FILLER_10_165
*179 FILLER_10_177
*180 FILLER_10_189
*181 FILLER_10_195
*182 FILLER_10_197
*183 FILLER_10_209
*184 FILLER_10_221
*185 FILLER_10_233
*186 FILLER_10_245
*187 FILLER_10_251
*188 FILLER_10_253
*189 FILLER_10_265
*190 FILLER_10_27
*191 FILLER_10_277
*192 FILLER_10_289
*193 FILLER_10_29
*194 FILLER_10_3
*195 FILLER_10_301
*196 FILLER_10_307
*197 FILLER_10_309
*198 FILLER_10_321
*199 FILLER_10_333
*200 FILLER_10_345
*201 FILLER_10_357
*202 FILLER_10_363
*203 FILLER_10_365
*204 FILLER_10_377
*205 FILLER_10_389
*206 FILLER_10_401
*207 FILLER_10_41
*208 FILLER_10_413
*209 FILLER_10_419
*210 FILLER_10_421
*211 FILLER_10_433
*212 FILLER_10_445
*213 FILLER_10_457
*214 FILLER_10_469
*215 FILLER_10_475
*216 FILLER_10_477
*217 FILLER_10_489
*218 FILLER_10_501
*219 FILLER_10_509
*220 FILLER_10_514
*221 FILLER_10_53
*222 FILLER_10_65
*223 FILLER_10_77
*224 FILLER_10_83
*225 FILLER_10_85
*226 FILLER_10_97
*227 FILLER_11_105
*228 FILLER_11_111
*229 FILLER_11_113
*230 FILLER_11_125
*231 FILLER_11_137
*232 FILLER_11_149
*233 FILLER_11_15
*234 FILLER_11_161
*235 FILLER_11_167
*236 FILLER_11_169
*237 FILLER_11_181
*238 FILLER_11_193
*239 FILLER_11_205
*240 FILLER_11_217
*241 FILLER_11_223
*242 FILLER_11_225
*243 FILLER_11_237
*244 FILLER_11_249
*245 FILLER_11_261
*246 FILLER_11_27
*247 FILLER_11_273
*248 FILLER_11_279
*249 FILLER_11_281
*250 FILLER_11_293
*251 FILLER_11_3
*252 FILLER_11_305
*253 FILLER_11_317
*254 FILLER_11_329
*255 FILLER_11_335
*256 FILLER_11_337
*257 FILLER_11_349
*258 FILLER_11_361
*259 FILLER_11_373
*260 FILLER_11_385
*261 FILLER_11_39
*262 FILLER_11_391
*263 FILLER_11_393
*264 FILLER_11_405
*265 FILLER_11_417
*266 FILLER_11_429
*267 FILLER_11_441
*268 FILLER_11_447
*269 FILLER_11_449
*270 FILLER_11_461
*271 FILLER_11_473
*272 FILLER_11_485
*273 FILLER_11_497
*274 FILLER_11_503
*275 FILLER_11_505
*276 FILLER_11_51
*277 FILLER_11_513
*278 FILLER_11_55
*279 FILLER_11_57
*280 FILLER_11_69
*281 FILLER_11_81
*282 FILLER_11_93
*283 FILLER_12_109
*284 FILLER_12_121
*285 FILLER_12_133
*286 FILLER_12_139
*287 FILLER_12_141
*288 FILLER_12_15
*289 FILLER_12_153
*290 FILLER_12_165
*291 FILLER_12_177
*292 FILLER_12_189
*293 FILLER_12_195
*294 FILLER_12_197
*295 FILLER_12_209
*296 FILLER_12_221
*297 FILLER_12_233
*298 FILLER_12_245
*299 FILLER_12_251
*300 FILLER_12_253
*301 FILLER_12_265
*302 FILLER_12_27
*303 FILLER_12_277
*304 FILLER_12_289
*305 FILLER_12_29
*306 FILLER_12_3
*307 FILLER_12_301
*308 FILLER_12_307
*309 FILLER_12_309
*310 FILLER_12_321
*311 FILLER_12_333
*312 FILLER_12_345
*313 FILLER_12_357
*314 FILLER_12_363
*315 FILLER_12_365
*316 FILLER_12_377
*317 FILLER_12_389
*318 FILLER_12_401
*319 FILLER_12_41
*320 FILLER_12_413
*321 FILLER_12_419
*322 FILLER_12_421
*323 FILLER_12_433
*324 FILLER_12_445
*325 FILLER_12_457
*326 FILLER_12_469
*327 FILLER_12_475
*328 FILLER_12_477
*329 FILLER_12_489
*330 FILLER_12_501
*331 FILLER_12_509
*332 FILLER_12_514
*333 FILLER_12_53
*334 FILLER_12_65
*335 FILLER_12_77
*336 FILLER_12_83
*337 FILLER_12_85
*338 FILLER_12_97
*339 FILLER_13_105
*340 FILLER_13_111
*341 FILLER_13_113
*342 FILLER_13_125
*343 FILLER_13_137
*344 FILLER_13_149
*345 FILLER_13_161
*346 FILLER_13_167
*347 FILLER_13_169
*348 FILLER_13_181
*349 FILLER_13_193
*350 FILLER_13_20
*351 FILLER_13_205
*352 FILLER_13_217
*353 FILLER_13_223
*354 FILLER_13_225
*355 FILLER_13_237
*356 FILLER_13_249
*357 FILLER_13_261
*358 FILLER_13_273
*359 FILLER_13_279
*360 FILLER_13_281
*361 FILLER_13_293
*362 FILLER_13_3
*363 FILLER_13_305
*364 FILLER_13_317
*365 FILLER_13_32
*366 FILLER_13_329
*367 FILLER_13_335
*368 FILLER_13_337
*369 FILLER_13_349
*370 FILLER_13_361
*371 FILLER_13_373
*372 FILLER_13_385
*373 FILLER_13_391
*374 FILLER_13_393
*375 FILLER_13_405
*376 FILLER_13_417
*377 FILLER_13_429
*378 FILLER_13_44
*379 FILLER_13_441
*380 FILLER_13_447
*381 FILLER_13_449
*382 FILLER_13_461
*383 FILLER_13_473
*384 FILLER_13_485
*385 FILLER_13_497
*386 FILLER_13_503
*387 FILLER_13_505
*388 FILLER_13_513
*389 FILLER_13_57
*390 FILLER_13_69
*391 FILLER_13_8
*392 FILLER_13_81
*393 FILLER_13_93
*394 FILLER_14_109
*395 FILLER_14_121
*396 FILLER_14_133
*397 FILLER_14_139
*398 FILLER_14_141
*399 FILLER_14_15
*400 FILLER_14_153
*401 FILLER_14_165
*402 FILLER_14_177
*403 FILLER_14_189
*404 FILLER_14_195
*405 FILLER_14_197
*406 FILLER_14_209
*407 FILLER_14_221
*408 FILLER_14_233
*409 FILLER_14_245
*410 FILLER_14_251
*411 FILLER_14_253
*412 FILLER_14_265
*413 FILLER_14_27
*414 FILLER_14_277
*415 FILLER_14_289
*416 FILLER_14_29
*417 FILLER_14_3
*418 FILLER_14_301
*419 FILLER_14_307
*420 FILLER_14_309
*421 FILLER_14_321
*422 FILLER_14_333
*423 FILLER_14_345
*424 FILLER_14_357
*425 FILLER_14_363
*426 FILLER_14_365
*427 FILLER_14_377
*428 FILLER_14_389
*429 FILLER_14_401
*430 FILLER_14_41
*431 FILLER_14_413
*432 FILLER_14_419
*433 FILLER_14_421
*434 FILLER_14_433
*435 FILLER_14_445
*436 FILLER_14_457
*437 FILLER_14_469
*438 FILLER_14_475
*439 FILLER_14_477
*440 FILLER_14_489
*441 FILLER_14_501
*442 FILLER_14_513
*443 FILLER_14_53
*444 FILLER_14_65
*445 FILLER_14_77
*446 FILLER_14_83
*447 FILLER_14_85
*448 FILLER_14_97
*449 FILLER_15_105
*450 FILLER_15_111
*451 FILLER_15_113
*452 FILLER_15_125
*453 FILLER_15_137
*454 FILLER_15_149
*455 FILLER_15_161
*456 FILLER_15_167
*457 FILLER_15_169
*458 FILLER_15_181
*459 FILLER_15_193
*460 FILLER_15_20
*461 FILLER_15_205
*462 FILLER_15_217
*463 FILLER_15_223
*464 FILLER_15_225
*465 FILLER_15_237
*466 FILLER_15_249
*467 FILLER_15_261
*468 FILLER_15_273
*469 FILLER_15_279
*470 FILLER_15_281
*471 FILLER_15_293
*472 FILLER_15_3
*473 FILLER_15_305
*474 FILLER_15_317
*475 FILLER_15_32
*476 FILLER_15_329
*477 FILLER_15_335
*478 FILLER_15_337
*479 FILLER_15_349
*480 FILLER_15_361
*481 FILLER_15_373
*482 FILLER_15_385
*483 FILLER_15_391
*484 FILLER_15_393
*485 FILLER_15_405
*486 FILLER_15_417
*487 FILLER_15_429
*488 FILLER_15_44
*489 FILLER_15_441
*490 FILLER_15_447
*491 FILLER_15_449
*492 FILLER_15_461
*493 FILLER_15_473
*494 FILLER_15_485
*495 FILLER_15_497
*496 FILLER_15_503
*497 FILLER_15_505
*498 FILLER_15_513
*499 FILLER_15_57
*500 FILLER_15_69
*501 FILLER_15_8
*502 FILLER_15_81
*503 FILLER_15_93
*504 FILLER_16_109
*505 FILLER_16_121
*506 FILLER_16_133
*507 FILLER_16_139
*508 FILLER_16_141
*509 FILLER_16_15
*510 FILLER_16_153
*511 FILLER_16_165
*512 FILLER_16_177
*513 FILLER_16_189
*514 FILLER_16_195
*515 FILLER_16_197
*516 FILLER_16_209
*517 FILLER_16_221
*518 FILLER_16_233
*519 FILLER_16_245
*520 FILLER_16_251
*521 FILLER_16_253
*522 FILLER_16_265
*523 FILLER_16_27
*524 FILLER_16_277
*525 FILLER_16_289
*526 FILLER_16_29
*527 FILLER_16_3
*528 FILLER_16_301
*529 FILLER_16_307
*530 FILLER_16_309
*531 FILLER_16_321
*532 FILLER_16_333
*533 FILLER_16_345
*534 FILLER_16_357
*535 FILLER_16_363
*536 FILLER_16_365
*537 FILLER_16_377
*538 FILLER_16_389
*539 FILLER_16_401
*540 FILLER_16_41
*541 FILLER_16_413
*542 FILLER_16_419
*543 FILLER_16_421
*544 FILLER_16_433
*545 FILLER_16_445
*546 FILLER_16_457
*547 FILLER_16_469
*548 FILLER_16_475
*549 FILLER_16_477
*550 FILLER_16_489
*551 FILLER_16_501
*552 FILLER_16_509
*553 FILLER_16_514
*554 FILLER_16_53
*555 FILLER_16_65
*556 FILLER_16_77
*557 FILLER_16_83
*558 FILLER_16_85
*559 FILLER_16_97
*560 FILLER_17_105
*561 FILLER_17_111
*562 FILLER_17_113
*563 FILLER_17_125
*564 FILLER_17_137
*565 FILLER_17_149
*566 FILLER_17_15
*567 FILLER_17_161
*568 FILLER_17_167
*569 FILLER_17_169
*570 FILLER_17_181
*571 FILLER_17_193
*572 FILLER_17_205
*573 FILLER_17_217
*574 FILLER_17_223
*575 FILLER_17_225
*576 FILLER_17_237
*577 FILLER_17_249
*578 FILLER_17_261
*579 FILLER_17_27
*580 FILLER_17_273
*581 FILLER_17_279
*582 FILLER_17_281
*583 FILLER_17_293
*584 FILLER_17_3
*585 FILLER_17_305
*586 FILLER_17_317
*587 FILLER_17_329
*588 FILLER_17_335
*589 FILLER_17_337
*590 FILLER_17_349
*591 FILLER_17_361
*592 FILLER_17_373
*593 FILLER_17_385
*594 FILLER_17_39
*595 FILLER_17_391
*596 FILLER_17_393
*597 FILLER_17_405
*598 FILLER_17_417
*599 FILLER_17_429
*600 FILLER_17_441
*601 FILLER_17_447
*602 FILLER_17_449
*603 FILLER_17_461
*604 FILLER_17_473
*605 FILLER_17_485
*606 FILLER_17_497
*607 FILLER_17_503
*608 FILLER_17_505
*609 FILLER_17_51
*610 FILLER_17_513
*611 FILLER_17_55
*612 FILLER_17_57
*613 FILLER_17_69
*614 FILLER_17_81
*615 FILLER_17_93
*616 FILLER_18_109
*617 FILLER_18_121
*618 FILLER_18_133
*619 FILLER_18_139
*620 FILLER_18_141
*621 FILLER_18_15
*622 FILLER_18_153
*623 FILLER_18_165
*624 FILLER_18_177
*625 FILLER_18_189
*626 FILLER_18_195
*627 FILLER_18_197
*628 FILLER_18_209
*629 FILLER_18_221
*630 FILLER_18_233
*631 FILLER_18_245
*632 FILLER_18_251
*633 FILLER_18_253
*634 FILLER_18_265
*635 FILLER_18_27
*636 FILLER_18_277
*637 FILLER_18_289
*638 FILLER_18_29
*639 FILLER_18_3
*640 FILLER_18_301
*641 FILLER_18_307
*642 FILLER_18_309
*643 FILLER_18_321
*644 FILLER_18_333
*645 FILLER_18_345
*646 FILLER_18_357
*647 FILLER_18_363
*648 FILLER_18_365
*649 FILLER_18_377
*650 FILLER_18_389
*651 FILLER_18_401
*652 FILLER_18_41
*653 FILLER_18_413
*654 FILLER_18_419
*655 FILLER_18_421
*656 FILLER_18_433
*657 FILLER_18_445
*658 FILLER_18_457
*659 FILLER_18_469
*660 FILLER_18_475
*661 FILLER_18_477
*662 FILLER_18_489
*663 FILLER_18_501
*664 FILLER_18_509
*665 FILLER_18_514
*666 FILLER_18_53
*667 FILLER_18_65
*668 FILLER_18_77
*669 FILLER_18_83
*670 FILLER_18_85
*671 FILLER_18_97
*672 FILLER_19_105
*673 FILLER_19_111
*674 FILLER_19_113
*675 FILLER_19_125
*676 FILLER_19_137
*677 FILLER_19_149
*678 FILLER_19_15
*679 FILLER_19_161
*680 FILLER_19_167
*681 FILLER_19_169
*682 FILLER_19_181
*683 FILLER_19_193
*684 FILLER_19_205
*685 FILLER_19_217
*686 FILLER_19_223
*687 FILLER_19_225
*688 FILLER_19_237
*689 FILLER_19_249
*690 FILLER_19_261
*691 FILLER_19_27
*692 FILLER_19_273
*693 FILLER_19_279
*694 FILLER_19_281
*695 FILLER_19_293
*696 FILLER_19_3
*697 FILLER_19_305
*698 FILLER_19_317
*699 FILLER_19_329
*700 FILLER_19_335
*701 FILLER_19_337
*702 FILLER_19_349
*703 FILLER_19_361
*704 FILLER_19_373
*705 FILLER_19_385
*706 FILLER_19_39
*707 FILLER_19_391
*708 FILLER_19_393
*709 FILLER_19_405
*710 FILLER_19_417
*711 FILLER_19_429
*712 FILLER_19_441
*713 FILLER_19_447
*714 FILLER_19_449
*715 FILLER_19_461
*716 FILLER_19_473
*717 FILLER_19_485
*718 FILLER_19_497
*719 FILLER_19_503
*720 FILLER_19_505
*721 FILLER_19_51
*722 FILLER_19_513
*723 FILLER_19_55
*724 FILLER_19_57
*725 FILLER_19_69
*726 FILLER_19_81
*727 FILLER_19_93
*728 FILLER_1_105
*729 FILLER_1_111
*730 FILLER_1_113
*731 FILLER_1_125
*732 FILLER_1_137
*733 FILLER_1_149
*734 FILLER_1_15
*735 FILLER_1_161
*736 FILLER_1_167
*737 FILLER_1_169
*738 FILLER_1_181
*739 FILLER_1_193
*740 FILLER_1_205
*741 FILLER_1_217
*742 FILLER_1_223
*743 FILLER_1_225
*744 FILLER_1_237
*745 FILLER_1_249
*746 FILLER_1_261
*747 FILLER_1_27
*748 FILLER_1_273
*749 FILLER_1_279
*750 FILLER_1_281
*751 FILLER_1_293
*752 FILLER_1_3
*753 FILLER_1_305
*754 FILLER_1_317
*755 FILLER_1_329
*756 FILLER_1_335
*757 FILLER_1_337
*758 FILLER_1_349
*759 FILLER_1_361
*760 FILLER_1_373
*761 FILLER_1_385
*762 FILLER_1_39
*763 FILLER_1_391
*764 FILLER_1_393
*765 FILLER_1_405
*766 FILLER_1_417
*767 FILLER_1_429
*768 FILLER_1_441
*769 FILLER_1_447
*770 FILLER_1_449
*771 FILLER_1_461
*772 FILLER_1_473
*773 FILLER_1_485
*774 FILLER_1_497
*775 FILLER_1_503
*776 FILLER_1_505
*777 FILLER_1_51
*778 FILLER_1_513
*779 FILLER_1_55
*780 FILLER_1_57
*781 FILLER_1_69
*782 FILLER_1_81
*783 FILLER_1_93
*784 FILLER_20_109
*785 FILLER_20_121
*786 FILLER_20_133
*787 FILLER_20_139
*788 FILLER_20_141
*789 FILLER_20_153
*790 FILLER_20_165
*791 FILLER_20_177
*792 FILLER_20_189
*793 FILLER_20_195
*794 FILLER_20_197
*795 FILLER_20_20
*796 FILLER_20_209
*797 FILLER_20_221
*798 FILLER_20_233
*799 FILLER_20_245
*800 FILLER_20_251
*801 FILLER_20_253
*802 FILLER_20_265
*803 FILLER_20_277
*804 FILLER_20_289
*805 FILLER_20_29
*806 FILLER_20_3
*807 FILLER_20_301
*808 FILLER_20_307
*809 FILLER_20_309
*810 FILLER_20_321
*811 FILLER_20_333
*812 FILLER_20_345
*813 FILLER_20_357
*814 FILLER_20_363
*815 FILLER_20_365
*816 FILLER_20_377
*817 FILLER_20_389
*818 FILLER_20_401
*819 FILLER_20_41
*820 FILLER_20_413
*821 FILLER_20_419
*822 FILLER_20_421
*823 FILLER_20_433
*824 FILLER_20_445
*825 FILLER_20_457
*826 FILLER_20_469
*827 FILLER_20_475
*828 FILLER_20_477
*829 FILLER_20_489
*830 FILLER_20_501
*831 FILLER_20_513
*832 FILLER_20_53
*833 FILLER_20_65
*834 FILLER_20_77
*835 FILLER_20_8
*836 FILLER_20_83
*837 FILLER_20_85
*838 FILLER_20_97
*839 FILLER_21_105
*840 FILLER_21_111
*841 FILLER_21_113
*842 FILLER_21_125
*843 FILLER_21_137
*844 FILLER_21_149
*845 FILLER_21_15
*846 FILLER_21_161
*847 FILLER_21_167
*848 FILLER_21_169
*849 FILLER_21_181
*850 FILLER_21_193
*851 FILLER_21_205
*852 FILLER_21_217
*853 FILLER_21_223
*854 FILLER_21_225
*855 FILLER_21_237
*856 FILLER_21_249
*857 FILLER_21_261
*858 FILLER_21_27
*859 FILLER_21_273
*860 FILLER_21_279
*861 FILLER_21_281
*862 FILLER_21_293
*863 FILLER_21_3
*864 FILLER_21_305
*865 FILLER_21_317
*866 FILLER_21_329
*867 FILLER_21_335
*868 FILLER_21_337
*869 FILLER_21_349
*870 FILLER_21_361
*871 FILLER_21_373
*872 FILLER_21_385
*873 FILLER_21_39
*874 FILLER_21_391
*875 FILLER_21_393
*876 FILLER_21_405
*877 FILLER_21_417
*878 FILLER_21_429
*879 FILLER_21_441
*880 FILLER_21_447
*881 FILLER_21_449
*882 FILLER_21_461
*883 FILLER_21_473
*884 FILLER_21_485
*885 FILLER_21_497
*886 FILLER_21_503
*887 FILLER_21_505
*888 FILLER_21_51
*889 FILLER_21_513
*890 FILLER_21_55
*891 FILLER_21_57
*892 FILLER_21_69
*893 FILLER_21_81
*894 FILLER_21_93
*895 FILLER_22_109
*896 FILLER_22_121
*897 FILLER_22_133
*898 FILLER_22_139
*899 FILLER_22_141
*900 FILLER_22_153
*901 FILLER_22_165
*902 FILLER_22_177
*903 FILLER_22_189
*904 FILLER_22_195
*905 FILLER_22_197
*906 FILLER_22_20
*907 FILLER_22_209
*908 FILLER_22_221
*909 FILLER_22_233
*910 FILLER_22_245
*911 FILLER_22_251
*912 FILLER_22_253
*913 FILLER_22_265
*914 FILLER_22_277
*915 FILLER_22_289
*916 FILLER_22_29
*917 FILLER_22_3
*918 FILLER_22_301
*919 FILLER_22_307
*920 FILLER_22_309
*921 FILLER_22_321
*922 FILLER_22_333
*923 FILLER_22_345
*924 FILLER_22_357
*925 FILLER_22_363
*926 FILLER_22_365
*927 FILLER_22_377
*928 FILLER_22_389
*929 FILLER_22_401
*930 FILLER_22_41
*931 FILLER_22_413
*932 FILLER_22_419
*933 FILLER_22_421
*934 FILLER_22_433
*935 FILLER_22_445
*936 FILLER_22_457
*937 FILLER_22_469
*938 FILLER_22_475
*939 FILLER_22_477
*940 FILLER_22_489
*941 FILLER_22_501
*942 FILLER_22_509
*943 FILLER_22_514
*944 FILLER_22_53
*945 FILLER_22_65
*946 FILLER_22_77
*947 FILLER_22_8
*948 FILLER_22_83
*949 FILLER_22_85
*950 FILLER_22_97
*951 FILLER_23_105
*952 FILLER_23_111
*953 FILLER_23_113
*954 FILLER_23_125
*955 FILLER_23_137
*956 FILLER_23_149
*957 FILLER_23_15
*958 FILLER_23_161
*959 FILLER_23_167
*960 FILLER_23_169
*961 FILLER_23_181
*962 FILLER_23_193
*963 FILLER_23_205
*964 FILLER_23_217
*965 FILLER_23_223
*966 FILLER_23_225
*967 FILLER_23_237
*968 FILLER_23_249
*969 FILLER_23_261
*970 FILLER_23_27
*971 FILLER_23_273
*972 FILLER_23_279
*973 FILLER_23_281
*974 FILLER_23_293
*975 FILLER_23_3
*976 FILLER_23_305
*977 FILLER_23_317
*978 FILLER_23_329
*979 FILLER_23_335
*980 FILLER_23_337
*981 FILLER_23_349
*982 FILLER_23_361
*983 FILLER_23_373
*984 FILLER_23_385
*985 FILLER_23_39
*986 FILLER_23_391
*987 FILLER_23_393
*988 FILLER_23_405
*989 FILLER_23_417
*990 FILLER_23_429
*991 FILLER_23_441
*992 FILLER_23_447
*993 FILLER_23_449
*994 FILLER_23_461
*995 FILLER_23_473
*996 FILLER_23_485
*997 FILLER_23_497
*998 FILLER_23_503
*999 FILLER_23_505
*1000 FILLER_23_51
*1001 FILLER_23_513
*1002 FILLER_23_55
*1003 FILLER_23_57
*1004 FILLER_23_69
*1005 FILLER_23_81
*1006 FILLER_23_93
*1007 FILLER_24_109
*1008 FILLER_24_121
*1009 FILLER_24_133
*1010 FILLER_24_139
*1011 FILLER_24_141
*1012 FILLER_24_15
*1013 FILLER_24_153
*1014 FILLER_24_165
*1015 FILLER_24_177
*1016 FILLER_24_189
*1017 FILLER_24_195
*1018 FILLER_24_197
*1019 FILLER_24_209
*1020 FILLER_24_221
*1021 FILLER_24_233
*1022 FILLER_24_245
*1023 FILLER_24_251
*1024 FILLER_24_253
*1025 FILLER_24_265
*1026 FILLER_24_27
*1027 FILLER_24_277
*1028 FILLER_24_289
*1029 FILLER_24_29
*1030 FILLER_24_3
*1031 FILLER_24_301
*1032 FILLER_24_307
*1033 FILLER_24_309
*1034 FILLER_24_321
*1035 FILLER_24_333
*1036 FILLER_24_345
*1037 FILLER_24_357
*1038 FILLER_24_363
*1039 FILLER_24_365
*1040 FILLER_24_377
*1041 FILLER_24_389
*1042 FILLER_24_401
*1043 FILLER_24_41
*1044 FILLER_24_413
*1045 FILLER_24_419
*1046 FILLER_24_421
*1047 FILLER_24_433
*1048 FILLER_24_445
*1049 FILLER_24_457
*1050 FILLER_24_469
*1051 FILLER_24_475
*1052 FILLER_24_477
*1053 FILLER_24_489
*1054 FILLER_24_501
*1055 FILLER_24_509
*1056 FILLER_24_514
*1057 FILLER_24_53
*1058 FILLER_24_65
*1059 FILLER_24_77
*1060 FILLER_24_83
*1061 FILLER_24_85
*1062 FILLER_24_97
*1063 FILLER_25_105
*1064 FILLER_25_111
*1065 FILLER_25_113
*1066 FILLER_25_125
*1067 FILLER_25_137
*1068 FILLER_25_149
*1069 FILLER_25_15
*1070 FILLER_25_161
*1071 FILLER_25_167
*1072 FILLER_25_169
*1073 FILLER_25_181
*1074 FILLER_25_193
*1075 FILLER_25_205
*1076 FILLER_25_217
*1077 FILLER_25_223
*1078 FILLER_25_225
*1079 FILLER_25_237
*1080 FILLER_25_249
*1081 FILLER_25_261
*1082 FILLER_25_27
*1083 FILLER_25_273
*1084 FILLER_25_279
*1085 FILLER_25_281
*1086 FILLER_25_293
*1087 FILLER_25_3
*1088 FILLER_25_305
*1089 FILLER_25_317
*1090 FILLER_25_329
*1091 FILLER_25_335
*1092 FILLER_25_337
*1093 FILLER_25_349
*1094 FILLER_25_361
*1095 FILLER_25_373
*1096 FILLER_25_385
*1097 FILLER_25_39
*1098 FILLER_25_391
*1099 FILLER_25_393
*1100 FILLER_25_405
*1101 FILLER_25_417
*1102 FILLER_25_429
*1103 FILLER_25_441
*1104 FILLER_25_447
*1105 FILLER_25_449
*1106 FILLER_25_461
*1107 FILLER_25_473
*1108 FILLER_25_485
*1109 FILLER_25_497
*1110 FILLER_25_503
*1111 FILLER_25_505
*1112 FILLER_25_51
*1113 FILLER_25_513
*1114 FILLER_25_55
*1115 FILLER_25_57
*1116 FILLER_25_69
*1117 FILLER_25_81
*1118 FILLER_25_93
*1119 FILLER_26_109
*1120 FILLER_26_121
*1121 FILLER_26_133
*1122 FILLER_26_139
*1123 FILLER_26_141
*1124 FILLER_26_153
*1125 FILLER_26_165
*1126 FILLER_26_177
*1127 FILLER_26_189
*1128 FILLER_26_195
*1129 FILLER_26_197
*1130 FILLER_26_20
*1131 FILLER_26_209
*1132 FILLER_26_221
*1133 FILLER_26_233
*1134 FILLER_26_245
*1135 FILLER_26_251
*1136 FILLER_26_253
*1137 FILLER_26_265
*1138 FILLER_26_277
*1139 FILLER_26_289
*1140 FILLER_26_29
*1141 FILLER_26_3
*1142 FILLER_26_301
*1143 FILLER_26_307
*1144 FILLER_26_309
*1145 FILLER_26_321
*1146 FILLER_26_333
*1147 FILLER_26_345
*1148 FILLER_26_357
*1149 FILLER_26_363
*1150 FILLER_26_365
*1151 FILLER_26_377
*1152 FILLER_26_389
*1153 FILLER_26_401
*1154 FILLER_26_41
*1155 FILLER_26_413
*1156 FILLER_26_419
*1157 FILLER_26_421
*1158 FILLER_26_433
*1159 FILLER_26_445
*1160 FILLER_26_457
*1161 FILLER_26_469
*1162 FILLER_26_475
*1163 FILLER_26_477
*1164 FILLER_26_489
*1165 FILLER_26_501
*1166 FILLER_26_513
*1167 FILLER_26_53
*1168 FILLER_26_65
*1169 FILLER_26_77
*1170 FILLER_26_8
*1171 FILLER_26_83
*1172 FILLER_26_85
*1173 FILLER_26_97
*1174 FILLER_27_105
*1175 FILLER_27_111
*1176 FILLER_27_113
*1177 FILLER_27_125
*1178 FILLER_27_137
*1179 FILLER_27_149
*1180 FILLER_27_15
*1181 FILLER_27_161
*1182 FILLER_27_167
*1183 FILLER_27_169
*1184 FILLER_27_181
*1185 FILLER_27_193
*1186 FILLER_27_205
*1187 FILLER_27_217
*1188 FILLER_27_223
*1189 FILLER_27_225
*1190 FILLER_27_237
*1191 FILLER_27_249
*1192 FILLER_27_261
*1193 FILLER_27_27
*1194 FILLER_27_273
*1195 FILLER_27_279
*1196 FILLER_27_281
*1197 FILLER_27_293
*1198 FILLER_27_3
*1199 FILLER_27_305
*1200 FILLER_27_317
*1201 FILLER_27_329
*1202 FILLER_27_335
*1203 FILLER_27_337
*1204 FILLER_27_349
*1205 FILLER_27_361
*1206 FILLER_27_373
*1207 FILLER_27_385
*1208 FILLER_27_39
*1209 FILLER_27_391
*1210 FILLER_27_393
*1211 FILLER_27_405
*1212 FILLER_27_417
*1213 FILLER_27_429
*1214 FILLER_27_441
*1215 FILLER_27_447
*1216 FILLER_27_449
*1217 FILLER_27_461
*1218 FILLER_27_473
*1219 FILLER_27_485
*1220 FILLER_27_497
*1221 FILLER_27_503
*1222 FILLER_27_505
*1223 FILLER_27_51
*1224 FILLER_27_513
*1225 FILLER_27_55
*1226 FILLER_27_57
*1227 FILLER_27_69
*1228 FILLER_27_81
*1229 FILLER_27_93
*1230 FILLER_28_109
*1231 FILLER_28_121
*1232 FILLER_28_133
*1233 FILLER_28_139
*1234 FILLER_28_141
*1235 FILLER_28_15
*1236 FILLER_28_153
*1237 FILLER_28_165
*1238 FILLER_28_177
*1239 FILLER_28_189
*1240 FILLER_28_195
*1241 FILLER_28_197
*1242 FILLER_28_209
*1243 FILLER_28_221
*1244 FILLER_28_233
*1245 FILLER_28_245
*1246 FILLER_28_251
*1247 FILLER_28_253
*1248 FILLER_28_265
*1249 FILLER_28_27
*1250 FILLER_28_277
*1251 FILLER_28_289
*1252 FILLER_28_29
*1253 FILLER_28_3
*1254 FILLER_28_301
*1255 FILLER_28_307
*1256 FILLER_28_309
*1257 FILLER_28_321
*1258 FILLER_28_333
*1259 FILLER_28_345
*1260 FILLER_28_357
*1261 FILLER_28_363
*1262 FILLER_28_365
*1263 FILLER_28_377
*1264 FILLER_28_389
*1265 FILLER_28_401
*1266 FILLER_28_41
*1267 FILLER_28_413
*1268 FILLER_28_419
*1269 FILLER_28_421
*1270 FILLER_28_433
*1271 FILLER_28_445
*1272 FILLER_28_457
*1273 FILLER_28_469
*1274 FILLER_28_475
*1275 FILLER_28_477
*1276 FILLER_28_489
*1277 FILLER_28_501
*1278 FILLER_28_509
*1279 FILLER_28_514
*1280 FILLER_28_53
*1281 FILLER_28_65
*1282 FILLER_28_77
*1283 FILLER_28_83
*1284 FILLER_28_85
*1285 FILLER_28_97
*1286 FILLER_29_105
*1287 FILLER_29_111
*1288 FILLER_29_113
*1289 FILLER_29_125
*1290 FILLER_29_137
*1291 FILLER_29_149
*1292 FILLER_29_161
*1293 FILLER_29_167
*1294 FILLER_29_169
*1295 FILLER_29_181
*1296 FILLER_29_193
*1297 FILLER_29_20
*1298 FILLER_29_205
*1299 FILLER_29_217
*1300 FILLER_29_223
*1301 FILLER_29_225
*1302 FILLER_29_237
*1303 FILLER_29_249
*1304 FILLER_29_261
*1305 FILLER_29_273
*1306 FILLER_29_279
*1307 FILLER_29_281
*1308 FILLER_29_293
*1309 FILLER_29_3
*1310 FILLER_29_305
*1311 FILLER_29_317
*1312 FILLER_29_32
*1313 FILLER_29_329
*1314 FILLER_29_335
*1315 FILLER_29_337
*1316 FILLER_29_349
*1317 FILLER_29_361
*1318 FILLER_29_373
*1319 FILLER_29_385
*1320 FILLER_29_391
*1321 FILLER_29_393
*1322 FILLER_29_405
*1323 FILLER_29_417
*1324 FILLER_29_429
*1325 FILLER_29_44
*1326 FILLER_29_441
*1327 FILLER_29_447
*1328 FILLER_29_449
*1329 FILLER_29_461
*1330 FILLER_29_473
*1331 FILLER_29_485
*1332 FILLER_29_497
*1333 FILLER_29_503
*1334 FILLER_29_505
*1335 FILLER_29_513
*1336 FILLER_29_57
*1337 FILLER_29_69
*1338 FILLER_29_8
*1339 FILLER_29_81
*1340 FILLER_29_93
*1341 FILLER_2_109
*1342 FILLER_2_121
*1343 FILLER_2_133
*1344 FILLER_2_139
*1345 FILLER_2_141
*1346 FILLER_2_153
*1347 FILLER_2_165
*1348 FILLER_2_177
*1349 FILLER_2_189
*1350 FILLER_2_195
*1351 FILLER_2_197
*1352 FILLER_2_20
*1353 FILLER_2_209
*1354 FILLER_2_221
*1355 FILLER_2_233
*1356 FILLER_2_245
*1357 FILLER_2_251
*1358 FILLER_2_253
*1359 FILLER_2_265
*1360 FILLER_2_277
*1361 FILLER_2_289
*1362 FILLER_2_29
*1363 FILLER_2_3
*1364 FILLER_2_301
*1365 FILLER_2_307
*1366 FILLER_2_309
*1367 FILLER_2_321
*1368 FILLER_2_333
*1369 FILLER_2_345
*1370 FILLER_2_357
*1371 FILLER_2_363
*1372 FILLER_2_365
*1373 FILLER_2_377
*1374 FILLER_2_389
*1375 FILLER_2_401
*1376 FILLER_2_41
*1377 FILLER_2_413
*1378 FILLER_2_419
*1379 FILLER_2_421
*1380 FILLER_2_433
*1381 FILLER_2_445
*1382 FILLER_2_457
*1383 FILLER_2_469
*1384 FILLER_2_475
*1385 FILLER_2_477
*1386 FILLER_2_489
*1387 FILLER_2_501
*1388 FILLER_2_513
*1389 FILLER_2_53
*1390 FILLER_2_65
*1391 FILLER_2_77
*1392 FILLER_2_8
*1393 FILLER_2_83
*1394 FILLER_2_85
*1395 FILLER_2_97
*1396 FILLER_30_109
*1397 FILLER_30_121
*1398 FILLER_30_133
*1399 FILLER_30_139
*1400 FILLER_30_141
*1401 FILLER_30_15
*1402 FILLER_30_153
*1403 FILLER_30_165
*1404 FILLER_30_177
*1405 FILLER_30_189
*1406 FILLER_30_195
*1407 FILLER_30_197
*1408 FILLER_30_209
*1409 FILLER_30_221
*1410 FILLER_30_233
*1411 FILLER_30_245
*1412 FILLER_30_251
*1413 FILLER_30_253
*1414 FILLER_30_265
*1415 FILLER_30_27
*1416 FILLER_30_277
*1417 FILLER_30_289
*1418 FILLER_30_29
*1419 FILLER_30_3
*1420 FILLER_30_301
*1421 FILLER_30_307
*1422 FILLER_30_309
*1423 FILLER_30_321
*1424 FILLER_30_333
*1425 FILLER_30_345
*1426 FILLER_30_357
*1427 FILLER_30_363
*1428 FILLER_30_365
*1429 FILLER_30_377
*1430 FILLER_30_389
*1431 FILLER_30_401
*1432 FILLER_30_41
*1433 FILLER_30_413
*1434 FILLER_30_419
*1435 FILLER_30_421
*1436 FILLER_30_433
*1437 FILLER_30_445
*1438 FILLER_30_457
*1439 FILLER_30_469
*1440 FILLER_30_475
*1441 FILLER_30_477
*1442 FILLER_30_489
*1443 FILLER_30_501
*1444 FILLER_30_509
*1445 FILLER_30_514
*1446 FILLER_30_53
*1447 FILLER_30_65
*1448 FILLER_30_77
*1449 FILLER_30_83
*1450 FILLER_30_85
*1451 FILLER_30_97
*1452 FILLER_31_105
*1453 FILLER_31_111
*1454 FILLER_31_113
*1455 FILLER_31_125
*1456 FILLER_31_137
*1457 FILLER_31_149
*1458 FILLER_31_15
*1459 FILLER_31_161
*1460 FILLER_31_167
*1461 FILLER_31_169
*1462 FILLER_31_181
*1463 FILLER_31_193
*1464 FILLER_31_205
*1465 FILLER_31_217
*1466 FILLER_31_223
*1467 FILLER_31_225
*1468 FILLER_31_237
*1469 FILLER_31_249
*1470 FILLER_31_261
*1471 FILLER_31_27
*1472 FILLER_31_273
*1473 FILLER_31_279
*1474 FILLER_31_281
*1475 FILLER_31_293
*1476 FILLER_31_3
*1477 FILLER_31_305
*1478 FILLER_31_317
*1479 FILLER_31_329
*1480 FILLER_31_335
*1481 FILLER_31_337
*1482 FILLER_31_349
*1483 FILLER_31_361
*1484 FILLER_31_373
*1485 FILLER_31_385
*1486 FILLER_31_39
*1487 FILLER_31_391
*1488 FILLER_31_393
*1489 FILLER_31_405
*1490 FILLER_31_417
*1491 FILLER_31_429
*1492 FILLER_31_441
*1493 FILLER_31_447
*1494 FILLER_31_449
*1495 FILLER_31_461
*1496 FILLER_31_473
*1497 FILLER_31_485
*1498 FILLER_31_497
*1499 FILLER_31_503
*1500 FILLER_31_505
*1501 FILLER_31_51
*1502 FILLER_31_513
*1503 FILLER_31_55
*1504 FILLER_31_57
*1505 FILLER_31_69
*1506 FILLER_31_81
*1507 FILLER_31_93
*1508 FILLER_32_109
*1509 FILLER_32_121
*1510 FILLER_32_133
*1511 FILLER_32_139
*1512 FILLER_32_141
*1513 FILLER_32_15
*1514 FILLER_32_153
*1515 FILLER_32_165
*1516 FILLER_32_177
*1517 FILLER_32_189
*1518 FILLER_32_195
*1519 FILLER_32_197
*1520 FILLER_32_209
*1521 FILLER_32_221
*1522 FILLER_32_233
*1523 FILLER_32_245
*1524 FILLER_32_251
*1525 FILLER_32_253
*1526 FILLER_32_265
*1527 FILLER_32_27
*1528 FILLER_32_277
*1529 FILLER_32_289
*1530 FILLER_32_29
*1531 FILLER_32_3
*1532 FILLER_32_301
*1533 FILLER_32_307
*1534 FILLER_32_309
*1535 FILLER_32_321
*1536 FILLER_32_333
*1537 FILLER_32_345
*1538 FILLER_32_357
*1539 FILLER_32_363
*1540 FILLER_32_365
*1541 FILLER_32_377
*1542 FILLER_32_389
*1543 FILLER_32_401
*1544 FILLER_32_41
*1545 FILLER_32_413
*1546 FILLER_32_419
*1547 FILLER_32_421
*1548 FILLER_32_433
*1549 FILLER_32_445
*1550 FILLER_32_457
*1551 FILLER_32_469
*1552 FILLER_32_475
*1553 FILLER_32_477
*1554 FILLER_32_489
*1555 FILLER_32_501
*1556 FILLER_32_513
*1557 FILLER_32_53
*1558 FILLER_32_65
*1559 FILLER_32_77
*1560 FILLER_32_83
*1561 FILLER_32_85
*1562 FILLER_32_97
*1563 FILLER_33_105
*1564 FILLER_33_111
*1565 FILLER_33_113
*1566 FILLER_33_125
*1567 FILLER_33_137
*1568 FILLER_33_149
*1569 FILLER_33_161
*1570 FILLER_33_167
*1571 FILLER_33_169
*1572 FILLER_33_181
*1573 FILLER_33_193
*1574 FILLER_33_20
*1575 FILLER_33_205
*1576 FILLER_33_217
*1577 FILLER_33_223
*1578 FILLER_33_225
*1579 FILLER_33_237
*1580 FILLER_33_249
*1581 FILLER_33_261
*1582 FILLER_33_273
*1583 FILLER_33_279
*1584 FILLER_33_281
*1585 FILLER_33_293
*1586 FILLER_33_3
*1587 FILLER_33_305
*1588 FILLER_33_317
*1589 FILLER_33_32
*1590 FILLER_33_329
*1591 FILLER_33_335
*1592 FILLER_33_337
*1593 FILLER_33_349
*1594 FILLER_33_361
*1595 FILLER_33_373
*1596 FILLER_33_385
*1597 FILLER_33_391
*1598 FILLER_33_393
*1599 FILLER_33_405
*1600 FILLER_33_417
*1601 FILLER_33_429
*1602 FILLER_33_44