*SPEF "ieee 1481-1999"
*DESIGN "tiny_user_project"
*DATE "11:11:11 Fri 11 11, 1111"
*VENDOR "OpenRCX"
*PROGRAM "Parallel Extraction"
*VERSION "1.0"
*DESIGN_FLOW "NAME_SCOPE LOCAL" "PIN_CAP NONE"
*DIVIDER /
*DELIMITER :
*BUS_DELIMITER []
*T_UNIT 1 NS
*C_UNIT 1 PF
*R_UNIT 1 OHM
*L_UNIT 1 HENRY

*NAME_MAP
*1 io_in[0]
*2 io_in[10]
*3 io_in[11]
*4 io_in[12]
*5 io_in[13]
*6 io_in[14]
*7 io_in[15]
*8 io_in[16]
*9 io_in[17]
*10 io_in[18]
*11 io_in[19]
*12 io_in[1]
*13 io_in[20]
*14 io_in[21]
*15 io_in[22]
*16 io_in[23]
*17 io_in[24]
*18 io_in[25]
*19 io_in[26]
*20 io_in[27]
*21 io_in[28]
*22 io_in[29]
*23 io_in[2]
*24 io_in[30]
*25 io_in[31]
*26 io_in[32]
*27 io_in[33]
*28 io_in[34]
*29 io_in[35]
*30 io_in[36]
*31 io_in[37]
*32 io_in[3]
*33 io_in[4]
*34 io_in[5]
*35 io_in[6]
*36 io_in[7]
*37 io_in[8]
*38 io_in[9]
*39 net16
*40 net26
*41 net27
*42 net28
*43 net29
*44 net30
*45 net31
*46 net32
*47 net33
*48 net34
*49 net35
*50 net17
*51 net36
*52 net37
*53 net38
*54 net39
*55 net40
*56 net41
*57 net42
*58 net43
*59 net44
*60 net45
*61 net18
*62 net46
*63 net47
*64 net48
*65 net49
*66 net50
*67 net51
*68 net52
*69 net53
*70 net19
*71 net20
*72 net21
*73 net22
*74 net23
*75 net24
*76 net25
*77 net54
*78 io_out[10]
*79 io_out[11]
*80 io_out[12]
*81 io_out[13]
*82 io_out[14]
*83 net64
*84 net65
*85 net66
*86 net67
*87 net68
*88 net55
*89 net69
*90 net70
*91 net71
*92 net72
*93 net73
*94 net74
*95 net75
*96 net76
*97 net77
*98 net78
*99 net56
*100 net79
*101 net80
*102 net81
*103 net82
*104 net83
*105 net84
*106 net85
*107 net86
*108 net57
*109 net58
*110 net59
*111 net60
*112 net61
*113 net62
*114 net63
*117 _0000_
*118 _0001_
*119 _0002_
*120 _0003_
*121 _0004_
*122 _0005_
*123 _0006_
*124 _0007_
*125 _0008_
*126 _0009_
*127 _0010_
*128 _0011_
*129 _0012_
*130 _0013_
*131 _0014_
*132 _0015_
*133 _0016_
*134 _0017_
*135 _0018_
*136 _0019_
*137 _0020_
*138 _0021_
*139 _0022_
*140 _0023_
*141 _0024_
*142 _0025_
*143 _0026_
*144 _0027_
*145 _0028_
*146 _0029_
*147 _0030_
*148 _0031_
*149 _0032_
*150 _0033_
*151 _0034_
*152 _0035_
*153 _0036_
*154 _0037_
*155 _0038_
*156 _0039_
*157 _0040_
*158 _0041_
*159 _0042_
*160 _0043_
*161 _0044_
*162 _0045_
*163 _0046_
*164 _0047_
*165 _0048_
*166 _0049_
*167 _0050_
*168 _0051_
*169 _0052_
*170 _0053_
*171 _0054_
*172 _0055_
*173 _0056_
*174 _0057_
*175 _0058_
*176 _0059_
*177 _0060_
*178 _0061_
*179 _0062_
*180 _0063_
*181 _0064_
*182 _0065_
*183 _0066_
*184 _0067_
*185 _0068_
*186 _0069_
*187 _0070_
*188 _0071_
*189 _0072_
*190 _0073_
*191 _0074_
*192 _0075_
*193 _0076_
*194 _0077_
*195 _0078_
*196 _0079_
*197 _0080_
*198 _0081_
*199 _0082_
*200 _0083_
*201 _0084_
*202 _0085_
*203 _0086_
*204 _0087_
*205 _0088_
*206 _0089_
*207 _0090_
*208 _0091_
*209 _0092_
*210 _0093_
*211 _0094_
*212 _0095_
*213 _0096_
*214 _0097_
*215 _0098_
*216 _0099_
*217 _0100_
*218 _0101_
*219 _0102_
*220 _0103_
*221 _0104_
*222 _0105_
*223 _0106_
*224 _0107_
*225 _0108_
*226 _0109_
*227 _0110_
*228 _0111_
*229 _0112_
*230 _0113_
*231 _0114_
*232 _0115_
*233 _0116_
*234 _0117_
*235 _0118_
*236 _0119_
*237 _0120_
*238 _0121_
*239 _0122_
*240 _0123_
*241 _0124_
*242 _0125_
*243 _0126_
*244 _0127_
*245 _0128_
*246 _0129_
*247 _0130_
*248 _0131_
*249 _0132_
*250 _0133_
*251 _0134_
*252 _0135_
*253 _0136_
*254 _0137_
*255 _0138_
*256 _0139_
*257 _0140_
*258 _0141_
*259 _0142_
*260 _0143_
*261 _0144_
*262 _0145_
*263 _0146_
*264 _0147_
*265 _0148_
*266 _0149_
*267 _0150_
*268 _0151_
*269 _0152_
*270 _0153_
*271 _0154_
*272 _0155_
*273 _0156_
*274 _0157_
*275 _0158_
*276 _0159_
*277 _0160_
*278 _0161_
*279 _0162_
*280 _0163_
*281 _0164_
*282 _0165_
*283 _0166_
*284 _0167_
*285 _0168_
*286 _0169_
*287 _0170_
*288 _0171_
*289 _0172_
*290 _0173_
*291 _0174_
*292 _0175_
*293 _0176_
*294 _0177_
*295 _0178_
*296 _0179_
*297 _0180_
*298 _0181_
*299 _0182_
*300 _0183_
*301 _0184_
*302 _0185_
*303 _0186_
*304 _0187_
*305 _0188_
*306 _0189_
*307 _0190_
*308 _0191_
*309 _0192_
*310 _0193_
*311 _0194_
*312 _0195_
*313 _0196_
*314 _0197_
*315 _0198_
*316 _0199_
*317 _0200_
*318 _0201_
*319 _0202_
*320 _0203_
*321 _0204_
*322 _0205_
*323 _0206_
*324 _0207_
*325 _0208_
*326 _0209_
*327 _0210_
*328 _0211_
*329 _0212_
*330 _0213_
*331 _0214_
*332 _0215_
*333 _0216_
*334 _0217_
*335 _0218_
*336 _0219_
*337 _0220_
*338 _0221_
*339 _0222_
*340 _0223_
*341 _0224_
*342 _0225_
*343 _0226_
*344 _0227_
*345 _0228_
*346 _0229_
*347 _0230_
*348 _0231_
*349 _0232_
*350 _0233_
*351 _0234_
*352 _0235_
*353 _0236_
*354 _0237_
*355 _0238_
*356 _0239_
*357 _0240_
*358 _0241_
*359 _0242_
*360 _0243_
*361 _0244_
*362 _0245_
*363 _0246_
*364 _0247_
*365 _0248_
*366 _0249_
*367 _0250_
*368 _0251_
*369 _0252_
*370 _0253_
*371 _0254_
*372 _0255_
*373 _0256_
*374 _0257_
*375 _0258_
*376 _0259_
*377 _0260_
*378 _0261_
*379 _0262_
*380 _0263_
*381 _0264_
*382 _0265_
*383 _0266_
*384 _0267_
*385 _0268_
*386 _0269_
*387 _0270_
*388 _0271_
*389 _0272_
*390 _0273_
*391 _0274_
*392 _0275_
*393 _0276_
*394 _0277_
*395 _0278_
*396 _0279_
*397 _0280_
*398 _0281_
*399 _0282_
*400 _0283_
*401 _0284_
*402 _0285_
*403 _0286_
*404 _0287_
*405 _0288_
*406 _0289_
*407 _0290_
*408 _0291_
*409 _0292_
*410 _0293_
*411 _0294_
*412 _0295_
*413 _0296_
*414 _0297_
*415 _0298_
*416 _0299_
*417 _0300_
*418 _0301_
*419 _0302_
*420 _0303_
*421 _0304_
*422 _0305_
*423 _0306_
*424 _0307_
*425 _0308_
*426 _0309_
*427 _0310_
*428 _0311_
*429 _0312_
*430 _0313_
*431 _0314_
*432 _0315_
*433 _0316_
*434 _0317_
*435 _0318_
*436 _0319_
*437 _0320_
*438 _0321_
*439 _0322_
*440 _0323_
*441 _0324_
*442 _0325_
*443 _0326_
*444 _0327_
*445 _0328_
*446 _0329_
*447 _0330_
*448 _0331_
*449 _0332_
*450 _0333_
*451 _0334_
*452 _0335_
*453 _0336_
*454 _0337_
*455 _0338_
*456 _0339_
*457 _0340_
*458 _0341_
*459 _0342_
*460 _0343_
*461 _0344_
*462 _0345_
*463 _0346_
*464 _0347_
*465 _0348_
*466 _0349_
*467 _0350_
*468 _0351_
*469 _0352_
*470 _0353_
*471 _0354_
*472 _0355_
*473 _0356_
*474 _0357_
*475 _0358_
*476 _0359_
*477 _0360_
*478 _0361_
*479 _0362_
*480 _0363_
*481 _0364_
*482 _0365_
*483 _0366_
*484 _0367_
*485 _0368_
*486 _0369_
*487 _0370_
*488 _0371_
*489 _0372_
*490 _0373_
*491 _0374_
*492 _0375_
*493 _0376_
*494 _0377_
*495 _0378_
*496 _0379_
*497 _0380_
*498 _0381_
*499 _0382_
*500 _0383_
*501 _0384_
*502 _0385_
*503 _0386_
*504 _0387_
*505 _0388_
*506 _0389_
*507 _0390_
*508 _0391_
*509 _0392_
*510 _0393_
*511 _0394_
*512 _0395_
*513 _0396_
*514 _0397_
*515 _0398_
*516 _0399_
*517 _0400_
*518 _0401_
*519 _0402_
*520 _0403_
*521 _0404_
*522 _0405_
*523 _0406_
*524 _0407_
*525 _0408_
*526 _0409_
*527 _0410_
*528 _0411_
*529 _0412_
*530 _0413_
*531 _0414_
*532 _0415_
*533 _0416_
*534 _0417_
*535 _0418_
*536 _0419_
*537 _0420_
*538 _0421_
*539 _0422_
*540 _0423_
*541 _0424_
*542 _0425_
*543 _0426_
*544 _0427_
*545 _0428_
*546 _0429_
*547 _0430_
*548 _0431_
*549 _0432_
*550 _0433_
*551 _0434_
*552 _0435_
*553 _0436_
*554 _0437_
*555 mod\.thorkn_vgaclock\.io_b
*556 mod\.thorkn_vgaclock\.io_g
*557 mod\.thorkn_vgaclock\.io_h_sync
*558 mod\.thorkn_vgaclock\.io_r
*559 mod\.thorkn_vgaclock\.io_v_sync
*560 mod\.thorkn_vgaclock\.vga_content\._zz_when_VgaContent_l39\[1\]
*561 mod\.thorkn_vgaclock\.vga_content\._zz_when_VgaContent_l45\[1\]
*562 mod\.thorkn_vgaclock\.vga_content\._zz_when_VgaContent_l51\[1\]
*563 mod\.thorkn_vgaclock\.vga_content\.clock_counters\.c_counter_valueNext\[0\]
*564 mod\.thorkn_vgaclock\.vga_content\.clock_counters\.c_counter_valueNext\[10\]
*565 mod\.thorkn_vgaclock\.vga_content\.clock_counters\.c_counter_valueNext\[11\]
*566 mod\.thorkn_vgaclock\.vga_content\.clock_counters\.c_counter_valueNext\[12\]
*567 mod\.thorkn_vgaclock\.vga_content\.clock_counters\.c_counter_valueNext\[13\]
*568 mod\.thorkn_vgaclock\.vga_content\.clock_counters\.c_counter_valueNext\[14\]
*569 mod\.thorkn_vgaclock\.vga_content\.clock_counters\.c_counter_valueNext\[15\]
*570 mod\.thorkn_vgaclock\.vga_content\.clock_counters\.c_counter_valueNext\[16\]
*571 mod\.thorkn_vgaclock\.vga_content\.clock_counters\.c_counter_valueNext\[17\]
*572 mod\.thorkn_vgaclock\.vga_content\.clock_counters\.c_counter_valueNext\[18\]
*573 mod\.thorkn_vgaclock\.vga_content\.clock_counters\.c_counter_valueNext\[19\]
*574 mod\.thorkn_vgaclock\.vga_content\.clock_counters\.c_counter_valueNext\[1\]
*575 mod\.thorkn_vgaclock\.vga_content\.clock_counters\.c_counter_valueNext\[20\]
*576 mod\.thorkn_vgaclock\.vga_content\.clock_counters\.c_counter_valueNext\[21\]
*577 mod\.thorkn_vgaclock\.vga_content\.clock_counters\.c_counter_valueNext\[22\]
*578 mod\.thorkn_vgaclock\.vga_content\.clock_counters\.c_counter_valueNext\[23\]
*579 mod\.thorkn_vgaclock\.vga_content\.clock_counters\.c_counter_valueNext\[24\]
*580 mod\.thorkn_vgaclock\.vga_content\.clock_counters\.c_counter_valueNext\[2\]
*581 mod\.thorkn_vgaclock\.vga_content\.clock_counters\.c_counter_valueNext\[3\]
*582 mod\.thorkn_vgaclock\.vga_content\.clock_counters\.c_counter_valueNext\[4\]
*583 mod\.thorkn_vgaclock\.vga_content\.clock_counters\.c_counter_valueNext\[5\]
*584 mod\.thorkn_vgaclock\.vga_content\.clock_counters\.c_counter_valueNext\[6\]
*585 mod\.thorkn_vgaclock\.vga_content\.clock_counters\.c_counter_valueNext\[7\]
*586 mod\.thorkn_vgaclock\.vga_content\.clock_counters\.c_counter_valueNext\[8\]
*587 mod\.thorkn_vgaclock\.vga_content\.clock_counters\.c_counter_valueNext\[9\]
*588 mod\.thorkn_vgaclock\.vga_content\.clock_counters\.c_counter_value\[0\]
*589 mod\.thorkn_vgaclock\.vga_content\.clock_counters\.c_counter_value\[10\]
*590 mod\.thorkn_vgaclock\.vga_content\.clock_counters\.c_counter_value\[11\]
*591 mod\.thorkn_vgaclock\.vga_content\.clock_counters\.c_counter_value\[12\]
*592 mod\.thorkn_vgaclock\.vga_content\.clock_counters\.c_counter_value\[13\]
*593 mod\.thorkn_vgaclock\.vga_content\.clock_counters\.c_counter_value\[14\]
*594 mod\.thorkn_vgaclock\.vga_content\.clock_counters\.c_counter_value\[15\]
*595 mod\.thorkn_vgaclock\.vga_content\.clock_counters\.c_counter_value\[16\]
*596 mod\.thorkn_vgaclock\.vga_content\.clock_counters\.c_counter_value\[17\]
*597 mod\.thorkn_vgaclock\.vga_content\.clock_counters\.c_counter_value\[18\]
*598 mod\.thorkn_vgaclock\.vga_content\.clock_counters\.c_counter_value\[19\]
*599 mod\.thorkn_vgaclock\.vga_content\.clock_counters\.c_counter_value\[1\]
*600 mod\.thorkn_vgaclock\.vga_content\.clock_counters\.c_counter_value\[20\]
*601 mod\.thorkn_vgaclock\.vga_content\.clock_counters\.c_counter_value\[21\]
*602 mod\.thorkn_vgaclock\.vga_content\.clock_counters\.c_counter_value\[22\]
*603 mod\.thorkn_vgaclock\.vga_content\.clock_counters\.c_counter_value\[23\]
*604 mod\.thorkn_vgaclock\.vga_content\.clock_counters\.c_counter_value\[24\]
*605 mod\.thorkn_vgaclock\.vga_content\.clock_counters\.c_counter_value\[2\]
*606 mod\.thorkn_vgaclock\.vga_content\.clock_counters\.c_counter_value\[3\]
*607 mod\.thorkn_vgaclock\.vga_content\.clock_counters\.c_counter_value\[4\]
*608 mod\.thorkn_vgaclock\.vga_content\.clock_counters\.c_counter_value\[5\]
*609 mod\.thorkn_vgaclock\.vga_content\.clock_counters\.c_counter_value\[6\]
*610 mod\.thorkn_vgaclock\.vga_content\.clock_counters\.c_counter_value\[7\]
*611 mod\.thorkn_vgaclock\.vga_content\.clock_counters\.c_counter_value\[8\]
*612 mod\.thorkn_vgaclock\.vga_content\.clock_counters\.c_counter_value\[9\]
*613 mod\.thorkn_vgaclock\.vga_content\.clock_counters\.h_counter_valueNext\[0\]
*614 mod\.thorkn_vgaclock\.vga_content\.clock_counters\.h_counter_valueNext\[1\]
*615 mod\.thorkn_vgaclock\.vga_content\.clock_counters\.h_counter_valueNext\[2\]
*616 mod\.thorkn_vgaclock\.vga_content\.clock_counters\.h_counter_valueNext\[3\]
*617 mod\.thorkn_vgaclock\.vga_content\.clock_counters\.h_counter_value\[1\]
*618 mod\.thorkn_vgaclock\.vga_content\.clock_counters\.h_counter_value\[2\]
*619 mod\.thorkn_vgaclock\.vga_content\.clock_counters\.h_counter_value\[3\]
*620 mod\.thorkn_vgaclock\.vga_content\.clock_counters\.io_minutes\[1\]
*621 mod\.thorkn_vgaclock\.vga_content\.clock_counters\.io_minutes\[2\]
*622 mod\.thorkn_vgaclock\.vga_content\.clock_counters\.io_minutes\[3\]
*623 mod\.thorkn_vgaclock\.vga_content\.clock_counters\.io_minutes\[4\]
*624 mod\.thorkn_vgaclock\.vga_content\.clock_counters\.io_minutes\[5\]
*625 mod\.thorkn_vgaclock\.vga_content\.clock_counters\.io_seconds\[1\]
*626 mod\.thorkn_vgaclock\.vga_content\.clock_counters\.io_seconds\[2\]
*627 mod\.thorkn_vgaclock\.vga_content\.clock_counters\.io_seconds\[3\]
*628 mod\.thorkn_vgaclock\.vga_content\.clock_counters\.io_seconds\[4\]
*629 mod\.thorkn_vgaclock\.vga_content\.clock_counters\.io_seconds\[5\]
*630 mod\.thorkn_vgaclock\.vga_content\.clock_counters\.m_counter_valueNext\[0\]
*631 mod\.thorkn_vgaclock\.vga_content\.clock_counters\.m_counter_valueNext\[1\]
*632 mod\.thorkn_vgaclock\.vga_content\.clock_counters\.m_counter_valueNext\[2\]
*633 mod\.thorkn_vgaclock\.vga_content\.clock_counters\.m_counter_valueNext\[3\]
*634 mod\.thorkn_vgaclock\.vga_content\.clock_counters\.m_counter_valueNext\[4\]
*635 mod\.thorkn_vgaclock\.vga_content\.clock_counters\.m_counter_valueNext\[5\]
*636 mod\.thorkn_vgaclock\.vga_content\.clock_counters\.s_counter_valueNext\[0\]
*637 mod\.thorkn_vgaclock\.vga_content\.clock_counters\.s_counter_valueNext\[1\]
*638 mod\.thorkn_vgaclock\.vga_content\.clock_counters\.s_counter_valueNext\[2\]
*639 mod\.thorkn_vgaclock\.vga_content\.clock_counters\.s_counter_valueNext\[3\]
*640 mod\.thorkn_vgaclock\.vga_content\.clock_counters\.s_counter_valueNext\[4\]
*641 mod\.thorkn_vgaclock\.vga_content\.clock_counters\.s_counter_valueNext\[5\]
*642 mod\.thorkn_vgaclock\.vga_sync_gen\.h_counter_valueNext\[0\]
*643 mod\.thorkn_vgaclock\.vga_sync_gen\.h_counter_valueNext\[1\]
*644 mod\.thorkn_vgaclock\.vga_sync_gen\.h_counter_valueNext\[2\]
*645 mod\.thorkn_vgaclock\.vga_sync_gen\.h_counter_valueNext\[3\]
*646 mod\.thorkn_vgaclock\.vga_sync_gen\.h_counter_valueNext\[4\]
*647 mod\.thorkn_vgaclock\.vga_sync_gen\.h_counter_valueNext\[5\]
*648 mod\.thorkn_vgaclock\.vga_sync_gen\.h_counter_valueNext\[6\]
*649 mod\.thorkn_vgaclock\.vga_sync_gen\.h_counter_valueNext\[7\]
*650 mod\.thorkn_vgaclock\.vga_sync_gen\.h_counter_valueNext\[8\]
*651 mod\.thorkn_vgaclock\.vga_sync_gen\.h_counter_valueNext\[9\]
*652 mod\.thorkn_vgaclock\.vga_sync_gen\.h_counter_value\[0\]
*653 mod\.thorkn_vgaclock\.vga_sync_gen\.h_counter_value\[1\]
*654 mod\.thorkn_vgaclock\.vga_sync_gen\.h_counter_value\[2\]
*655 mod\.thorkn_vgaclock\.vga_sync_gen\.h_counter_value\[3\]
*656 mod\.thorkn_vgaclock\.vga_sync_gen\.h_counter_value\[4\]
*657 mod\.thorkn_vgaclock\.vga_sync_gen\.h_counter_value\[5\]
*658 mod\.thorkn_vgaclock\.vga_sync_gen\.h_counter_value\[6\]
*659 mod\.thorkn_vgaclock\.vga_sync_gen\.h_counter_value\[7\]
*660 mod\.thorkn_vgaclock\.vga_sync_gen\.h_counter_value\[8\]
*661 mod\.thorkn_vgaclock\.vga_sync_gen\.h_counter_value\[9\]
*662 mod\.thorkn_vgaclock\.vga_sync_gen\.v_counter_valueNext\[0\]
*663 mod\.thorkn_vgaclock\.vga_sync_gen\.v_counter_valueNext\[1\]
*664 mod\.thorkn_vgaclock\.vga_sync_gen\.v_counter_valueNext\[2\]
*665 mod\.thorkn_vgaclock\.vga_sync_gen\.v_counter_valueNext\[3\]
*666 mod\.thorkn_vgaclock\.vga_sync_gen\.v_counter_valueNext\[4\]
*667 mod\.thorkn_vgaclock\.vga_sync_gen\.v_counter_valueNext\[5\]
*668 mod\.thorkn_vgaclock\.vga_sync_gen\.v_counter_valueNext\[6\]
*669 mod\.thorkn_vgaclock\.vga_sync_gen\.v_counter_valueNext\[7\]
*670 mod\.thorkn_vgaclock\.vga_sync_gen\.v_counter_valueNext\[8\]
*671 mod\.thorkn_vgaclock\.vga_sync_gen\.v_counter_valueNext\[9\]
*672 mod\.thorkn_vgaclock\.vga_sync_gen\.v_counter_value\[0\]
*673 mod\.thorkn_vgaclock\.vga_sync_gen\.v_counter_value\[1\]
*674 mod\.thorkn_vgaclock\.vga_sync_gen\.v_counter_value\[2\]
*675 mod\.thorkn_vgaclock\.vga_sync_gen\.v_counter_value\[3\]
*676 mod\.thorkn_vgaclock\.vga_sync_gen\.v_counter_value\[4\]
*677 mod\.thorkn_vgaclock\.vga_sync_gen\.v_counter_value\[5\]
*678 mod\.thorkn_vgaclock\.vga_sync_gen\.v_counter_value\[6\]
*679 mod\.thorkn_vgaclock\.vga_sync_gen\.v_counter_value\[7\]
*680 mod\.thorkn_vgaclock\.vga_sync_gen\.v_counter_value\[8\]
*681 mod\.thorkn_vgaclock\.vga_sync_gen\.v_counter_value\[9\]
*682 net1
*683 net10
*684 net11
*685 net12
*686 net13
*687 net14
*688 net15
*689 net2
*690 net3
*691 net4
*692 net5
*693 net6
*694 net7
*695 net8
*696 net9
*697 ANTENNA__0438__A
*698 ANTENNA__0439__B
*699 ANTENNA__0440__B
*700 ANTENNA__0442__B
*701 ANTENNA__0445__A
*702 ANTENNA__0446__A
*703 ANTENNA__0448__A
*704 ANTENNA__0448__B
*705 ANTENNA__0449__A
*706 ANTENNA__0451__A
*707 ANTENNA__0453__A
*708 ANTENNA__0453__B
*709 ANTENNA__0454__A
*710 ANTENNA__0454__B
*711 ANTENNA__0455__A
*712 ANTENNA__0455__B
*713 ANTENNA__0455__D
*714 ANTENNA__0456__A1
*715 ANTENNA__0456__B1
*716 ANTENNA__0458__A
*717 ANTENNA__0458__B
*718 ANTENNA__0458__C
*719 ANTENNA__0459__B
*720 ANTENNA__0460__A1
*721 ANTENNA__0461__A
*722 ANTENNA__0464__A
*723 ANTENNA__0465__A
*724 ANTENNA__0465__B
*725 ANTENNA__0466__A1
*726 ANTENNA__0466__A2
*727 ANTENNA__0466__C1
*728 ANTENNA__0467__A
*729 ANTENNA__0468__A
*730 ANTENNA__0468__B
*731 ANTENNA__0468__D
*732 ANTENNA__0469__A1
*733 ANTENNA__0469__A2
*734 ANTENNA__0469__A3
*735 ANTENNA__0471__B
*736 ANTENNA__0472__B1
*737 ANTENNA__0473__B
*738 ANTENNA__0474__B
*739 ANTENNA__0477__B
*740 ANTENNA__0478__A
*741 ANTENNA__0478__B
*742 ANTENNA__0480__A
*743 ANTENNA__0480__C
*744 ANTENNA__0481__A
*745 ANTENNA__0483__A
*746 ANTENNA__0483__B
*747 ANTENNA__0483__C
*748 ANTENNA__0484__A
*749 ANTENNA__0484__B
*750 ANTENNA__0485__A1
*751 ANTENNA__0485__A2
*752 ANTENNA__0486__A1
*753 ANTENNA__0486__B1
*754 ANTENNA__0487__A
*755 ANTENNA__0487__B
*756 ANTENNA__0488__A
*757 ANTENNA__0492__A
*758 ANTENNA__0493__A1
*759 ANTENNA__0493__B1
*760 ANTENNA__0494__A
*761 ANTENNA__0494__B
*762 ANTENNA__0497__B1
*763 ANTENNA__0498__A
*764 ANTENNA__0500__A
*765 ANTENNA__0501__A1
*766 ANTENNA__0501__B1
*767 ANTENNA__0502__A
*768 ANTENNA__0502__B
*769 ANTENNA__0505__A
*770 ANTENNA__0506__C
*771 ANTENNA__0506__D
*772 ANTENNA__0507__A
*773 ANTENNA__0508__C
*774 ANTENNA__0508__D
*775 ANTENNA__0513__C
*776 ANTENNA__0515__A
*777 ANTENNA__0522__A
*778 ANTENNA__0522__B
*779 ANTENNA__0523__A1
*780 ANTENNA__0523__A2
*781 ANTENNA__0523__B1
*782 ANTENNA__0524__A
*783 ANTENNA__0524__B
*784 ANTENNA__0524__C
*785 ANTENNA__0526__A
*786 ANTENNA__0526__B
*787 ANTENNA__0527__A
*788 ANTENNA__0528__A1
*789 ANTENNA__0528__A2
*790 ANTENNA__0528__B1
*791 ANTENNA__0529__A1
*792 ANTENNA__0529__A2
*793 ANTENNA__0530__A1
*794 ANTENNA__0530__A2
*795 ANTENNA__0530__B1
*796 ANTENNA__0531__A1
*797 ANTENNA__0531__A2
*798 ANTENNA__0532__A
*799 ANTENNA__0534__A1
*800 ANTENNA__0534__B1
*801 ANTENNA__0535__A
*802 ANTENNA__0535__B
*803 ANTENNA__0545__A
*804 ANTENNA__0545__B
*805 ANTENNA__0560__A
*806 ANTENNA__0560__B
*807 ANTENNA__0561__A
*808 ANTENNA__0561__B
*809 ANTENNA__0564__A
*810 ANTENNA__0564__B
*811 ANTENNA__0565__B2
*812 ANTENNA__0566__A1
*813 ANTENNA__0566__A2
*814 ANTENNA__0566__A3
*815 ANTENNA__0567__A
*816 ANTENNA__0567__B
*817 ANTENNA__0567__D
*818 ANTENNA__0573__C
*819 ANTENNA__0578__A
*820 ANTENNA__0580__A
*821 ANTENNA__0581__A
*822 ANTENNA__0581__B
*823 ANTENNA__0582__A1
*824 ANTENNA__0597__A
*825 ANTENNA__0614__C1
*826 ANTENNA__0625__C1
*827 ANTENNA__0631__A
*828 ANTENNA__0634__B
*829 ANTENNA__0635__A
*830 ANTENNA__0636__A2
*831 ANTENNA__0637__A
*832 ANTENNA__0637__B
*833 ANTENNA__0638__A1
*834 ANTENNA__0638__A2
*835 ANTENNA__0639__A2
*836 ANTENNA__0639__A3
*837 ANTENNA__0640__B
*838 ANTENNA__0640__C
*839 ANTENNA__0643__A2
*840 ANTENNA__0643__A3
*841 ANTENNA__0645__C
*842 ANTENNA__0646__A2
*843 ANTENNA__0646__B1
*844 ANTENNA__0647__A
*845 ANTENNA__0647__C
*846 ANTENNA__0648__B
*847 ANTENNA__0649__B
*848 ANTENNA__0650__A2
*849 ANTENNA__0650__C1
*850 ANTENNA__0651__A
*851 ANTENNA__0652__B
*852 ANTENNA__0653__A1_N
*853 ANTENNA__0653__A2_N
*854 ANTENNA__0653__B1
*855 ANTENNA__0654__A
*856 ANTENNA__0654__B
*857 ANTENNA__0654__C
*858 ANTENNA__0656__A
*859 ANTENNA__0657__A
*860 ANTENNA__0657__B
*861 ANTENNA__0658__A1
*862 ANTENNA__0658__B2
*863 ANTENNA__0659__A
*864 ANTENNA__0659__B
*865 ANTENNA__0661__A
*866 ANTENNA__0662__B1
*867 ANTENNA__0663__C1
*868 ANTENNA__0664__A
*869 ANTENNA__0665__A1
*870 ANTENNA__0665__A2
*871 ANTENNA__0665__B1
*872 ANTENNA__0666__B
*873 ANTENNA__0666__C
*874 ANTENNA__0667__A
*875 ANTENNA__0668__A1
*876 ANTENNA__0668__B1
*877 ANTENNA__0668__C1
*878 ANTENNA__0669__A
*879 ANTENNA__0669__B
*880 ANTENNA__0670__A1
*881 ANTENNA__0670__C1
*882 ANTENNA__0671__A
*883 ANTENNA__0671__B
*884 ANTENNA__0671__C
*885 ANTENNA__0672__A1
*886 ANTENNA__0672__B1
*887 ANTENNA__0672__C1
*888 ANTENNA__0673__A2
*889 ANTENNA__0673__C1
*890 ANTENNA__0674__A1
*891 ANTENNA__0674__A2
*892 ANTENNA__0674__B1
*893 ANTENNA__0674__C1
*894 ANTENNA__0675__A
*895 ANTENNA__0675__B
*896 ANTENNA__0676__A
*897 ANTENNA__0676__B
*898 ANTENNA__0678__A
*899 ANTENNA__0678__B
*900 ANTENNA__0678__C
*901 ANTENNA__0681__A
*902 ANTENNA__0681__B
*903 ANTENNA__0682__A
*904 ANTENNA__0682__C
*905 ANTENNA__0683__A
*906 ANTENNA__0684__A1
*907 ANTENNA__0685__A1
*908 ANTENNA__0685__A2
*909 ANTENNA__0685__B1
*910 ANTENNA__0685__C1
*911 ANTENNA__0686__A1
*912 ANTENNA__0686__C1
*913 ANTENNA__0687__A1
*914 ANTENNA__0687__C1
*915 ANTENNA__0688__A
*916 ANTENNA__0688__B
*917 ANTENNA__0689__A
*918 ANTENNA__0689__B
*919 ANTENNA__0690__A
*920 ANTENNA__0690__B
*921 ANTENNA__0691__A1
*922 ANTENNA__0691__A2
*923 ANTENNA__0691__B1
*924 ANTENNA__0692__A1
*925 ANTENNA__0693__A
*926 ANTENNA__0694__A
*927 ANTENNA__0694__B
*928 ANTENNA__0695__A
*929 ANTENNA__0696__B
*930 ANTENNA__0697__A
*931 ANTENNA__0697__B
*932 ANTENNA__0698__B
*933 ANTENNA__0698__C
*934 ANTENNA__0698__D
*935 ANTENNA__0699__A
*936 ANTENNA__0699__B
*937 ANTENNA__0699__C
*938 ANTENNA__0699__D
*939 ANTENNA__0700__A2
*940 ANTENNA__0700__A3
*941 ANTENNA__0700__B1
*942 ANTENNA__0701__A
*943 ANTENNA__0702__A2
*944 ANTENNA__0702__B1
*945 ANTENNA__0703__B
*946 ANTENNA__0703__C
*947 ANTENNA__0705__A
*948 ANTENNA__0705__B
*949 ANTENNA__0705__C_N
*950 ANTENNA__0707__A
*951 ANTENNA__0707__B
*952 ANTENNA__0709__A2
*953 ANTENNA__0709__A3
*954 ANTENNA__0709__A4
*955 ANTENNA__0710__A
*956 ANTENNA__0710__B
*957 ANTENNA__0710__D
*958 ANTENNA__0711__B
*959 ANTENNA__0711__C_N
*960 ANTENNA__0712__A2
*961 ANTENNA__0712__A3
*962 ANTENNA__0713__B
*963 ANTENNA__0713__C
*964 ANTENNA__0714__A
*965 ANTENNA__0714__B
*966 ANTENNA__0715__A
*967 ANTENNA__0715__B
*968 ANTENNA__0716__A2
*969 ANTENNA__0716__B1
*970 ANTENNA__0716__C1
*971 ANTENNA__0717__A
*972 ANTENNA__0717__B
*973 ANTENNA__0717__C
*974 ANTENNA__0718__A
*975 ANTENNA__0719__B
*976 ANTENNA__0720__A
*977 ANTENNA__0720__B
*978 ANTENNA__0720__C
*979 ANTENNA__0721__B
*980 ANTENNA__0721__C
*981 ANTENNA__0722__A
*982 ANTENNA__0722__B
*983 ANTENNA__0723__A_N
*984 ANTENNA__0723__B
*985 ANTENNA__0723__C
*986 ANTENNA__0723__D
*987 ANTENNA__0724__B
*988 ANTENNA__0726__B1
*989 ANTENNA__0727__A
*990 ANTENNA__0727__B
*991 ANTENNA__0728__A2
*992 ANTENNA__0728__B1
*993 ANTENNA__0728__C1
*994 ANTENNA__0728__D1
*995 ANTENNA__0729__A2
*996 ANTENNA__0730__A1
*997 ANTENNA__0730__B1_N
*998 ANTENNA__0731__A1
*999 ANTENNA__0731__A2
*1000 ANTENNA__0733__A
*1001 ANTENNA__0733__B
*1002 ANTENNA__0733__C
*1003 ANTENNA__0734__A
*1004 ANTENNA__0735__A0
*1005 ANTENNA__0737__A1
*1006 ANTENNA__0737__B1
*1007 ANTENNA__0739__A1
*1008 ANTENNA__0747__A
*1009 ANTENNA__0748__A
*1010 ANTENNA__0750__B
*1011 ANTENNA__0750__C
*1012 ANTENNA__0751__A
*1013 ANTENNA__0751__B
*1014 ANTENNA__0751__C
*1015 ANTENNA__0751__D
*1016 ANTENNA__0752__A
*1017 ANTENNA__0753__A2
*1018 ANTENNA__0753__A3
*1019 ANTENNA__0753__A4
*1020 ANTENNA__0754__A1
*1021 ANTENNA__0754__A2
*1022 ANTENNA__0754__A3
*1023 ANTENNA__0754__B1
*1024 ANTENNA__0755__A2
*1025 ANTENNA__0757__A1_N
*1026 ANTENNA__0757__A2_N
*1027 ANTENNA__0757__B1
*1028 ANTENNA__0758__A
*1029 ANTENNA__0758__B
*1030 ANTENNA__0759__A1
*1031 ANTENNA__0759__A2
*1032 ANTENNA__0759__B1_N
*1033 ANTENNA__0761__A1
*1034 ANTENNA__0766__A1
*1035 ANTENNA__0767__A1
*1036 ANTENNA__0768__B2
*1037 ANTENNA__0769__B1
*1038 ANTENNA__0771__C1
*1039 ANTENNA__0772__A1
*1040 ANTENNA__0772__A2
*1041 ANTENNA__0772__B1
*1042 ANTENNA__0773__A
*1043 ANTENNA__0773__B
*1044 ANTENNA__0774__A
*1045 ANTENNA__0776__C
*1046 ANTENNA__0777__B
*1047 ANTENNA__0780__A
*1048 ANTENNA__0781__A1
*1049 ANTENNA__0781__A3
*1050 ANTENNA__0781__B1
*1051 ANTENNA__0781__C1
*1052 ANTENNA__0782__A
*1053 ANTENNA__0782__B
*1054 ANTENNA__0783__A
*1055 ANTENNA__0783__B
*1056 ANTENNA__0784__A
*1057 ANTENNA__0785__A
*1058 ANTENNA__0785__B
*1059 ANTENNA__0786__B
*1060 ANTENNA__0786__C
*1061 ANTENNA__0786__D
*1062 ANTENNA__0787__A1_N
*1063 ANTENNA__0787__B1
*1064 ANTENNA__0788__A
*1065 ANTENNA__0788__B
*1066 ANTENNA__0789__A
*1067 ANTENNA__0789__B
*1068 ANTENNA__0790__B
*1069 ANTENNA__0791__A
*1070 ANTENNA__0791__B
*1071 ANTENNA__0791__C
*1072 ANTENNA__0792__A2_N
*1073 ANTENNA__0792__B2
*1074 ANTENNA__0794__A
*1075 ANTENNA__0794__B
*1076 ANTENNA__0795__A1
*1077 ANTENNA__0795__A2
*1078 ANTENNA__0795__B1
*1079 ANTENNA__0795__B2
*1080 ANTENNA__0796__A1
*1081 ANTENNA__0796__B2
*1082 ANTENNA__0797__A1
*1083 ANTENNA__0797__A2
*1084 ANTENNA__0797__A3
*1085 ANTENNA__0798__A1
*1086 ANTENNA__0798__B2
*1087 ANTENNA__0800__A1
*1088 ANTENNA__0800__A2
*1089 ANTENNA__0800__A3
*1090 ANTENNA__0800__B1
*1091 ANTENNA__0801__A2_N
*1092 ANTENNA__0801__B1
*1093 ANTENNA__0802__A2
*1094 ANTENNA__0802__B1
*1095 ANTENNA__0803__A2_N
*1096 ANTENNA__0803__B2
*1097 ANTENNA__0804__C1
*1098 ANTENNA__0805__A1
*1099 ANTENNA__0806__A2
*1100 ANTENNA__0806__A3
*1101 ANTENNA__0806__B1
*1102 ANTENNA__0807__A1
*1103 ANTENNA__0808__C_N
*1104 ANTENNA__0809__A1
*1105 ANTENNA__0810__A2
*1106 ANTENNA__0810__A3
*1107 ANTENNA__0811__A
*1108 ANTENNA__0811__B
*1109 ANTENNA__0811__C
*1110 ANTENNA__0811__D_N
*1111 ANTENNA__0812__A1
*1112 ANTENNA__0812__A2
*1113 ANTENNA__0812__A3
*1114 ANTENNA__0812__B1
*1115 ANTENNA__0813__A
*1116 ANTENNA__0814__A
*1117 ANTENNA__0815__A2
*1118 ANTENNA__0815__A3
*1119 ANTENNA__0815__A4
*1120 ANTENNA__0816__A1
*1121 ANTENNA__0816__A2
*1122 ANTENNA__0817__A0
*1123 ANTENNA__0819__A1
*1124 ANTENNA__0819__B1
*1125 ANTENNA__0822__B1
*1126 ANTENNA__0822__B2
*1127 ANTENNA__0823__A
*1128 ANTENNA__0823__B
*1129 ANTENNA__0824__A1
*1130 ANTENNA__0827__B1
*1131 ANTENNA__0827__C1
*1132 ANTENNA__0828__A1
*1133 ANTENNA__0828__A2
*1134 ANTENNA__0829__B1
*1135 ANTENNA__0831__B1
*1136 ANTENNA__0831__C1
*1137 ANTENNA__0833__C
*1138 ANTENNA__0834__A2
*1139 ANTENNA__0835__A
*1140 ANTENNA__0835__B
*1141 ANTENNA__0835__C
*1142 ANTENNA__0836__A1
*1143 ANTENNA__0836__A2
*1144 ANTENNA__0836__B1
*1145 ANTENNA__0837__A
*1146 ANTENNA__0837__B
*1147 ANTENNA__0838__A1
*1148 ANTENNA__0838__A2
*1149 ANTENNA__0838__B1
*1150 ANTENNA__0839__B
*1151 ANTENNA__0840__A
*1152 ANTENNA__0840__B
*1153 ANTENNA__0840__C
*1154 ANTENNA__0842__A2
*1155 ANTENNA__0843__A1
*1156 ANTENNA__0843__A2
*1157 ANTENNA__0843__A3
*1158 ANTENNA__0844__A
*1159 ANTENNA__0844__B
*1160 ANTENNA__0844__C
*1161 ANTENNA__0845__A2
*1162 ANTENNA__0847__A1
*1163 ANTENNA__0847__B1
*1164 ANTENNA__0848__A3
*1165 ANTENNA__0848__B1
*1166 ANTENNA__0849__A
*1167 ANTENNA__0849__C
*1168 ANTENNA__0849__D_N
*1169 ANTENNA__0850__A1
*1170 ANTENNA__0850__A2
*1171 ANTENNA__0851__A
*1172 ANTENNA__0851__B
*1173 ANTENNA__0852__A1
*1174 ANTENNA__0852__A2
*1175 ANTENNA__0852__B1
*1176 ANTENNA__0852__C1
*1177 ANTENNA__0853__B
*1178 ANTENNA__0854__A1
*1179 ANTENNA__0854__A2
*1180 ANTENNA__0855__A3
*1181 ANTENNA__0856__B1
*1182 ANTENNA__0857__B
*1183 ANTENNA__0857__C
*1184 ANTENNA__0858__A2
*1185 ANTENNA__0858__B1
*1186 ANTENNA__0859__A1
*1187 ANTENNA__0859__B1
*1188 ANTENNA__0860__B
*1189 ANTENNA__0861__A
*1190 ANTENNA__0861__B
*1191 ANTENNA__0862__B
*1192 ANTENNA__0863__A2
*1193 ANTENNA__0863__A3
*1194 ANTENNA__0863__B1
*1195 ANTENNA__0864__A2
*1196 ANTENNA__0865__C
*1197 ANTENNA__0866__C
*1198 ANTENNA__0866__D
*1199 ANTENNA__0869__A2
*1200 ANTENNA__0873__A
*1201 ANTENNA__0875__A
*1202 ANTENNA__0876__A
*1203 ANTENNA__0877__A
*1204 ANTENNA__0878__A
*1205 ANTENNA__0879__A
*1206 ANTENNA__0880__A
*1207 ANTENNA__0881__A
*1208 ANTENNA__0882__A
*1209 ANTENNA__0883__A
*1210 ANTENNA__0884__A
*1211 ANTENNA__0885__A
*1212 ANTENNA__0886__A
*1213 ANTENNA__0887__A
*1214 ANTENNA__0888__A
*1215 ANTENNA__0889__A
*1216 ANTENNA__0890__A
*1217 ANTENNA__0891__A
*1218 ANTENNA__0892__A
*1219 ANTENNA__0893__A
*1220 ANTENNA__0894__A
*1221 ANTENNA__0895__A
*1222 ANTENNA__0896__A
*1223 ANTENNA__0897__A
*1224 ANTENNA__0898__A
*1225 ANTENNA__0899__A
*1226 ANTENNA__0900__A
*1227 ANTENNA__0901__A
*1228 ANTENNA__0902__A
*1229 ANTENNA__0903__A
*1230 ANTENNA__0904__A
*1231 ANTENNA__0905__A
*1232 ANTENNA__0906__A
*1233 ANTENNA__0907__A
*1234 ANTENNA__0908__A
*1235 ANTENNA__0909__A
*1236 ANTENNA__0910__A
*1237 ANTENNA__0911__A
*1238 ANTENNA__0912__A
*1239 ANTENNA__0913__A
*1240 ANTENNA__0914__A
*1241 ANTENNA__0915__A
*1242 ANTENNA__0916__A
*1243 ANTENNA__0917__A
*1244 ANTENNA__0918__A
*1245 ANTENNA__0919__A
*1246 ANTENNA__0920__A
*1247 ANTENNA__0921__A
*1248 ANTENNA__0922__A
*1249 ANTENNA__0923__A
*1250 ANTENNA__0924__A
*1251 ANTENNA__0925__A
*1252 ANTENNA__0926__A
*1253 ANTENNA__0927__A
*1254 ANTENNA__0928__A
*1255 ANTENNA__0929__A
*1256 ANTENNA__0930__A
*1257 ANTENNA__0931__A
*1258 ANTENNA__0932__A
*1259 ANTENNA__0933__A
*1260 ANTENNA__0934__A
*1261 ANTENNA__0935__A
*1262 ANTENNA__0936__A
*1263 ANTENNA__0937__A
*1264 ANTENNA__0938__A
*1265 ANTENNA__0939__A
*1266 ANTENNA__0940__A
*1267 ANTENNA__0941__A
*1268 ANTENNA__0942__CLK
*1269 ANTENNA__0943__CLK
*1270 ANTENNA__0944__CLK
*1271 ANTENNA__0945__CLK
*1272 ANTENNA__0946__CLK
*1273 ANTENNA__0947__CLK
*1274 ANTENNA__0951__CLK
*1275 ANTENNA__0959__CLK
*1276 ANTENNA__0960__CLK
*1277 ANTENNA__0961__CLK
*1278 ANTENNA__0962__CLK
*1279 ANTENNA__0963__CLK
*1280 ANTENNA__0964__CLK
*1281 ANTENNA__0965__CLK
*1282 ANTENNA__0966__CLK
*1283 ANTENNA__0967__CLK
*1284 ANTENNA__0970__CLK
*1285 ANTENNA__0971__CLK
*1286 ANTENNA_fanout12_A
*1287 ANTENNA_fanout13_A
*1288 ANTENNA_input1_A
*1289 ANTENNA_input2_A
*1290 FILLER_0_109
*1291 FILLER_0_113
*1292 FILLER_0_125
*1293 FILLER_0_137
*1294 FILLER_0_141
*1295 FILLER_0_153
*1296 FILLER_0_165
*1297 FILLER_0_169